MODEL 1
REMARK VINA RESULT:     -11.5      0.000      0.000
REMARK  14 active torsions:
REMARK  status: ('A' for Active; 'I' for Inactive)
REMARK    1  A    between atoms: N1_1  and  C31_43 
REMARK    2  A    between atoms: C2_3  and  C3_4 
REMARK       I    between atoms: C3_4  and  N2_6 
REMARK    3  A    between atoms: N2_6  and  C4_8 
REMARK    4  A    between atoms: N3_12  and  C10_15 
REMARK    5  A    between atoms: C10_15  and  C11_16 
REMARK    6  A    between atoms: C11_16  and  O2_17 
REMARK    7  A    between atoms: C11_16  and  C12_19 
REMARK    8  A    between atoms: C12_19  and  C13_20 
REMARK    9  A    between atoms: C13_20  and  C21_28 
REMARK   10  A    between atoms: C13_20  and  C14_21 
REMARK   11  A    between atoms: C14_21  and  C15_22 
REMARK       I    between atoms: C21_28  and  N4_30 
REMARK   12  A    between atoms: N4_30  and  C22_32 
REMARK   13  A    between atoms: C23_33  and  O4_34 
REMARK   14  A    between atoms: C31_43  and  C32_44 
ROOT
HETATM    1  N1  MK1 B 902       9.122  24.032   3.162  1.00 28.25     0.096 N 
HETATM    2  C1  MK1 B 902       9.411  24.211   4.610  1.00 30.30     0.307 C 
HETATM    3  C2  MK1 B 902      10.593  25.035   5.082  1.00 27.27     0.200 C 
HETATM    4  N3  MK1 B 902      11.743  24.325   4.421  1.00 28.91    -0.395 N 
HETATM    5  C8  MK1 B 902      11.585  23.847   3.024  1.00 26.24     0.148 C 
HETATM    6  C9  MK1 B 902      10.211  23.368   2.600  1.00 27.47     0.292 C 
ENDROOT
BRANCH   1   7
HETATM    7  C31 MK1 B 902       7.811  23.477   2.802  1.00 36.25     0.312 C 
BRANCH   7   8
HETATM    8  C32 MK1 B 902       6.518  24.017   3.424  1.00 42.75    -0.015 A 
HETATM    9  C36 MK1 B 902       5.539  23.105   3.756  1.00 44.71     0.011 A 
HETATM   10  C35 MK1 B 902       4.354  23.591   4.303  1.00 49.34     0.018 A 
HETATM   11  C34 MK1 B 902       4.187  24.966   4.494  1.00 50.60     0.087 A 
HETATM   12  N5  MK1 B 902       5.123  25.952   4.186  1.00 51.38    -0.375 N 
HETATM   13  C33 MK1 B 902       6.286  25.383   3.642  1.00 47.41     0.096 A 
HETATM   14  H5  MK1 B 902       4.982  26.952   4.335  1.00  0.00     0.164 HD
ENDBRANCH   7   8
ENDBRANCH   1   7
BRANCH   3  15
HETATM   15  C3  MK1 B 902      10.646  24.970   6.585  1.00 28.85     0.242 C 
HETATM   16  O1  MK1 B 902      10.807  23.898   7.152  1.00 29.59    -0.271 OA
HETATM   17  N2  MK1 B 902      10.498  26.106   7.237  1.00 22.29    -0.351 N 
HETATM   18  H2  MK1 B 902      10.303  26.917   6.649  1.00  0.00     0.163 HD
BRANCH  17  19
HETATM   19  C4  MK1 B 902      10.567  26.385   8.636  1.00 23.47     0.022 C 
HETATM   20  C7  MK1 B 902       9.617  25.604   9.436  1.00 22.75     0.037 C 
HETATM   21  C5  MK1 B 902      10.123  27.847   8.826  1.00 27.66     0.037 C 
HETATM   22  C6  MK1 B 902      11.830  26.190   9.173  1.00 21.71     0.037 C 
ENDBRANCH  17  19
ENDBRANCH   3  15
BRANCH   4  23
HETATM   23  C10 MK1 B 902      13.065  24.899   4.577  1.00 20.86     0.149 C 
BRANCH  23  24
HETATM   24  C11 MK1 B 902      14.109  23.926   5.126  1.00 21.68     0.136 C 
BRANCH  24  25
HETATM   25  O2  MK1 B 902      15.211  24.660   4.683  1.00 15.87    -0.394 OA
HETATM   26  H2  MK1 B 902      15.047  25.577   4.870  1.00  0.00     0.210 HD
ENDBRANCH  24  25
BRANCH  24  27
HETATM   27  C12 MK1 B 902      14.309  23.626   6.623  1.00 21.49     0.047 C 
BRANCH  27  28
HETATM   28  C13 MK1 B 902      15.464  22.731   7.094  1.00 26.89     0.084 C 
BRANCH  28  29
HETATM   29  C21 MK1 B 902      15.431  21.358   6.433  1.00 29.35     0.222 C 
HETATM   30  N4  MK1 B 902      16.597  20.924   5.962  1.00 31.19    -0.350 N 
HETATM   31  H4  MK1 B 902      17.364  21.586   5.843  1.00  0.00     0.163 HD
HETATM   32  O3  MK1 B 902      14.398  20.672   6.455  1.00 32.66    -0.273 OA
BRANCH  30  33
HETATM   33  C22 MK1 B 902      16.804  19.529   5.610  1.00 29.22     0.147 C 
HETATM   34  C30 MK1 B 902      16.585  19.100   4.136  1.00 31.86    -0.027 A 
HETATM   35  C29 MK1 B 902      15.689  19.465   3.182  1.00 27.70     0.010 A 
HETATM   36  C25 MK1 B 902      17.629  18.031   3.704  1.00 31.29    -0.047 A 
HETATM   37  C28 MK1 B 902      15.717  18.917   1.907  1.00 29.01     0.001 A 
HETATM   38  C27 MK1 B 902      16.672  17.964   1.524  1.00 28.00     0.001 A 
HETATM   39  C26 MK1 B 902      17.639  17.513   2.430  1.00 32.00     0.008 A 
HETATM   40  C24 MK1 B 902      18.449  17.894   4.963  1.00 32.05     0.073 C 
HETATM   41  C23 MK1 B 902      18.233  19.082   5.871  1.00 28.82     0.149 C 
BRANCH  41  42
HETATM   42  O4  MK1 B 902      19.134  20.155   5.640  1.00 28.32    -0.393 OA
HETATM   43  H4  MK1 B 902      18.858  20.926   6.123  1.00  0.00     0.210 HD
ENDBRANCH  41  42
ENDBRANCH  30  33
ENDBRANCH  28  29
BRANCH  28  44
HETATM   44  C14 MK1 B 902      15.475  22.548   8.621  1.00 28.67     0.052 C 
BRANCH  44  45
HETATM   45  C15 MK1 B 902      16.612  21.714   9.085  1.00 26.89    -0.057 A 
HETATM   46  C16 MK1 B 902      17.943  22.040   8.817  1.00 29.22     0.007 A 
HETATM   47  C17 MK1 B 902      18.972  21.212   9.239  1.00 29.22     0.001 A 
HETATM   48  C18 MK1 B 902      18.653  20.045   9.936  1.00 30.97     0.000 A 
HETATM   49  C19 MK1 B 902      17.321  19.718  10.214  1.00 29.25     0.001 A 
HETATM   50  C20 MK1 B 902      16.297  20.561   9.784  1.00 29.96     0.007 A 
ENDBRANCH  44  45
ENDBRANCH  28  44
ENDBRANCH  27  28
ENDBRANCH  24  27
ENDBRANCH  23  24
ENDBRANCH   4  23
TORSDOF 14
ENDMDL
MODEL 2
REMARK VINA RESULT:     -10.5      1.340      4.307
REMARK  14 active torsions:
REMARK  status: ('A' for Active; 'I' for Inactive)
REMARK    1  A    between atoms: N1_1  and  C31_43 
REMARK    2  A    between atoms: C2_3  and  C3_4 
REMARK       I    between atoms: C3_4  and  N2_6 
REMARK    3  A    between atoms: N2_6  and  C4_8 
REMARK    4  A    between atoms: N3_12  and  C10_15 
REMARK    5  A    between atoms: C10_15  and  C11_16 
REMARK    6  A    between atoms: C11_16  and  O2_17 
REMARK    7  A    between atoms: C11_16  and  C12_19 
REMARK    8  A    between atoms: C12_19  and  C13_20 
REMARK    9  A    between atoms: C13_20  and  C21_28 
REMARK   10  A    between atoms: C13_20  and  C14_21 
REMARK   11  A    between atoms: C14_21  and  C15_22 
REMARK       I    between atoms: C21_28  and  N4_30 
REMARK   12  A    between atoms: N4_30  and  C22_32 
REMARK   13  A    between atoms: C23_33  and  O4_34 
REMARK   14  A    between atoms: C31_43  and  C32_44 
ROOT
HETATM    1  N1  MK1 B 902       8.945  24.225   2.881  1.00 28.25     0.096 N 
HETATM    2  C1  MK1 B 902       9.156  24.470   4.333  1.00 30.30     0.307 C 
HETATM    3  C2  MK1 B 902      10.375  25.216   4.837  1.00 27.27     0.200 C 
HETATM    4  N3  MK1 B 902      11.496  24.369   4.298  1.00 28.91    -0.395 N 
HETATM    5  C8  MK1 B 902      11.384  23.820   2.923  1.00 26.24     0.148 C 
HETATM    6  C9  MK1 B 902      10.003  23.435   2.434  1.00 27.47     0.292 C 
ENDROOT
BRANCH   1   7
HETATM    7  C31 MK1 B 902       7.615  23.764   2.464  1.00 36.25     0.312 C 
BRANCH   7   8
HETATM    8  C32 MK1 B 902       6.354  24.151   3.246  1.00 42.75    -0.015 A 
HETATM    9  C36 MK1 B 902       5.548  23.131   3.705  1.00 44.71     0.011 A 
HETATM   10  C35 MK1 B 902       4.391  23.476   4.399  1.00 49.34     0.018 A 
HETATM   11  C34 MK1 B 902       4.079  24.823   4.607  1.00 50.60     0.087 A 
HETATM   12  N5  MK1 B 902       4.837  25.911   4.178  1.00 51.38    -0.375 N 
HETATM   13  C33 MK1 B 902       5.983  25.481   3.490  1.00 47.41     0.096 A 
HETATM   14  H5  MK1 B 902       4.591  26.888   4.342  1.00  0.00     0.164 HD
ENDBRANCH   7   8
ENDBRANCH   1   7
BRANCH   3  15
HETATM   15  C3  MK1 B 902      10.327  25.242   6.341  1.00 28.85     0.242 C 
HETATM   16  O1  MK1 B 902      10.511  24.217   6.983  1.00 29.59    -0.271 OA
HETATM   17  N2  MK1 B 902      10.067  26.403   6.910  1.00 22.29    -0.351 N 
HETATM   18  H2  MK1 B 902       9.866  27.164   6.261  1.00  0.00     0.163 HD
BRANCH  17  19
HETATM   19  C4  MK1 B 902      10.021  26.765   8.291  1.00 23.47     0.022 C 
HETATM   20  C7  MK1 B 902      11.242  26.422   9.028  1.00 22.75     0.037 C 
HETATM   21  C5  MK1 B 902       8.921  25.909   8.944  1.00 27.66     0.037 C 
HETATM   22  C6  MK1 B 902       9.770  28.113   8.497  1.00 21.71     0.037 C 
ENDBRANCH  17  19
ENDBRANCH   3  15
BRANCH   4  23
HETATM   23  C10 MK1 B 902      12.852  24.836   4.512  1.00 20.86     0.149 C 
BRANCH  23  24
HETATM   24  C11 MK1 B 902      13.696  23.921   5.400  1.00 21.68     0.136 C 
BRANCH  24  25
HETATM   25  O2  MK1 B 902      13.739  24.801   6.483  1.00 15.87    -0.394 OA
HETATM   26  H2  MK1 B 902      14.621  25.148   6.544  1.00  0.00     0.210 HD
ENDBRANCH  24  25
BRANCH  24  27
HETATM   27  C12 MK1 B 902      13.227  22.549   5.921  1.00 21.49     0.047 C 
BRANCH  27  28
HETATM   28  C13 MK1 B 902      14.246  21.448   6.249  1.00 26.89     0.084 C 
BRANCH  28  29
HETATM   29  C21 MK1 B 902      14.897  21.658   7.611  1.00 29.35     0.222 C 
HETATM   30  N4  MK1 B 902      15.781  20.730   7.969  1.00 31.19    -0.350 N 
HETATM   31  H4  MK1 B 902      15.804  19.843   7.466  1.00  0.00     0.163 HD
HETATM   32  O3  MK1 B 902      14.681  22.691   8.261  1.00 32.66    -0.273 OA
BRANCH  30  33
HETATM   33  C22 MK1 B 902      16.715  20.950   9.060  1.00 29.22     0.147 C 
HETATM   34  C30 MK1 B 902      17.130  19.736   9.932  1.00 31.86    -0.027 A 
HETATM   35  C29 MK1 B 902      16.460  18.649  10.395  1.00 27.70     0.010 A 
HETATM   36  C25 MK1 B 902      18.630  19.822  10.334  1.00 31.29    -0.047 A 
HETATM   37  C28 MK1 B 902      17.085  17.682  11.171  1.00 29.01     0.001 A 
HETATM   38  C27 MK1 B 902      18.442  17.764  11.516  1.00 28.00     0.001 A 
HETATM   39  C26 MK1 B 902      19.226  18.844  11.095  1.00 32.00     0.008 A 
HETATM   40  C24 MK1 B 902      19.047  21.099   9.645  1.00 32.05     0.073 C 
HETATM   41  C23 MK1 B 902      18.055  21.470   8.566  1.00 28.82     0.149 C 
BRANCH  41  42
HETATM   42  O4  MK1 B 902      18.357  20.920   7.293  1.00 28.32    -0.393 OA
HETATM   43  H4  MK1 B 902      19.262  20.630   7.265  1.00  0.00     0.210 HD
ENDBRANCH  41  42
ENDBRANCH  30  33
ENDBRANCH  28  29
BRANCH  28  44
HETATM   44  C14 MK1 B 902      15.349  21.338   5.182  1.00 28.67     0.052 C 
BRANCH  44  45
HETATM   45  C15 MK1 B 902      15.199  20.130   4.333  1.00 26.89    -0.057 A 
HETATM   46  C16 MK1 B 902      15.343  18.835   4.834  1.00 29.22     0.007 A 
HETATM   47  C17 MK1 B 902      15.230  17.735   3.996  1.00 29.22     0.001 A 
HETATM   48  C18 MK1 B 902      14.971  17.947   2.640  1.00 30.97     0.000 A 
HETATM   49  C19 MK1 B 902      14.818  19.244   2.134  1.00 29.25     0.001 A 
HETATM   50  C20 MK1 B 902      14.934  20.339   2.990  1.00 29.96     0.007 A 
ENDBRANCH  44  45
ENDBRANCH  28  44
ENDBRANCH  27  28
ENDBRANCH  24  27
ENDBRANCH  23  24
ENDBRANCH   4  23
TORSDOF 14
ENDMDL
MODEL 3
REMARK VINA RESULT:     -10.4      2.094     10.990
REMARK  14 active torsions:
REMARK  status: ('A' for Active; 'I' for Inactive)
REMARK    1  A    between atoms: N1_1  and  C31_43 
REMARK    2  A    between atoms: C2_3  and  C3_4 
REMARK       I    between atoms: C3_4  and  N2_6 
REMARK    3  A    between atoms: N2_6  and  C4_8 
REMARK    4  A    between atoms: N3_12  and  C10_15 
REMARK    5  A    between atoms: C10_15  and  C11_16 
REMARK    6  A    between atoms: C11_16  and  O2_17 
REMARK    7  A    between atoms: C11_16  and  C12_19 
REMARK    8  A    between atoms: C12_19  and  C13_20 
REMARK    9  A    between atoms: C13_20  and  C21_28 
REMARK   10  A    between atoms: C13_20  and  C14_21 
REMARK   11  A    between atoms: C14_21  and  C15_22 
REMARK       I    between atoms: C21_28  and  N4_30 
REMARK   12  A    between atoms: N4_30  and  C22_32 
REMARK   13  A    between atoms: C23_33  and  O4_34 
REMARK   14  A    between atoms: C31_43  and  C32_44 
ROOT
HETATM    1  N1  MK1 B 902      16.306  21.267   9.040  1.00 28.25     0.096 N 
HETATM    2  C1  MK1 B 902      15.820  20.588   7.808  1.00 30.30     0.307 C 
HETATM    3  C2  MK1 B 902      15.990  21.219   6.441  1.00 27.27     0.200 C 
HETATM    4  N3  MK1 B 902      15.266  22.527   6.617  1.00 28.91    -0.395 N 
HETATM    5  C8  MK1 B 902      15.431  23.274   7.889  1.00 26.24     0.148 C 
HETATM    6  C9  MK1 B 902      15.603  22.465   9.159  1.00 27.47     0.292 C 
ENDROOT
BRANCH   1   7
HETATM    7  C31 MK1 B 902      16.368  20.466  10.268  1.00 36.25     0.312 C 
BRANCH   7   8
HETATM    8  C32 MK1 B 902      17.063  19.100  10.297  1.00 42.75    -0.015 A 
HETATM    9  C36 MK1 B 902      18.338  19.020   9.779  1.00 44.71     0.011 A 
HETATM   10  C35 MK1 B 902      18.967  17.777   9.784  1.00 49.34     0.018 A 
HETATM   11  C34 MK1 B 902      18.302  16.662  10.301  1.00 50.60     0.087 A 
HETATM   12  N5  MK1 B 902      17.017  16.656  10.842  1.00 51.38    -0.375 N 
HETATM   13  C33 MK1 B 902      16.453  17.942  10.801  1.00 47.41     0.096 A 
HETATM   14  H5  MK1 B 902      16.550  15.830  11.216  1.00  0.00     0.164 HD
ENDBRANCH   7   8
ENDBRANCH   1   7
BRANCH   3  15
HETATM   15  C3  MK1 B 902      15.345  20.321   5.420  1.00 28.85     0.242 C 
HETATM   16  O1  MK1 B 902      14.146  20.079   5.479  1.00 29.59    -0.271 OA
HETATM   17  N2  MK1 B 902      16.130  19.811   4.492  1.00 22.29    -0.351 N 
HETATM   18  H2  MK1 B 902      17.120  20.036   4.596  1.00  0.00     0.163 HD
BRANCH  17  19
HETATM   19  C4  MK1 B 902      15.817  18.993   3.363  1.00 23.47     0.022 C 
HETATM   20  C7  MK1 B 902      15.205  17.710   3.722  1.00 22.75     0.037 C 
HETATM   21  C5  MK1 B 902      17.153  18.613   2.700  1.00 27.66     0.037 C 
HETATM   22  C6  MK1 B 902      14.984  19.617   2.448  1.00 21.71     0.037 C 
ENDBRANCH  17  19
ENDBRANCH   3  15
BRANCH   4  23
HETATM   23  C10 MK1 B 902      15.295  23.463   5.511  1.00 20.86     0.149 C 
BRANCH  23  24
HETATM   24  C11 MK1 B 902      13.925  24.028   5.132  1.00 21.68     0.136 C 
BRANCH  24  25
HETATM   25  O2  MK1 B 902      14.424  25.202   4.567  1.00 15.87    -0.394 OA
HETATM   26  H2  MK1 B 902      14.966  25.634   5.217  1.00  0.00     0.210 HD
ENDBRANCH  24  25
BRANCH  24  27
HETATM   27  C12 MK1 B 902      12.973  23.376   4.112  1.00 21.49     0.047 C 
BRANCH  27  28
HETATM   28  C13 MK1 B 902      11.722  24.120   3.624  1.00 26.89     0.084 C 
BRANCH  28  29
HETATM   29  C21 MK1 B 902      10.776  24.463   4.768  1.00 29.35     0.222 C 
HETATM   30  N4  MK1 B 902      10.308  25.708   4.767  1.00 31.19    -0.350 N 
HETATM   31  H4  MK1 B 902      10.763  26.411   4.185  1.00  0.00     0.163 HD
HETATM   32  O3  MK1 B 902      10.400  23.586   5.560  1.00 32.66    -0.273 OA
BRANCH  30  33
HETATM   33  C22 MK1 B 902       9.164  26.091   5.576  1.00 29.22     0.147 C 
HETATM   34  C30 MK1 B 902       9.420  26.642   7.004  1.00 31.86    -0.027 A 
HETATM   35  C29 MK1 B 902      10.317  26.329   7.976  1.00 27.70     0.010 A 
HETATM   36  C25 MK1 B 902       8.424  27.785   7.351  1.00 31.29    -0.047 A 
HETATM   37  C28 MK1 B 902      10.337  26.997   9.193  1.00 29.01     0.001 A 
HETATM   38  C27 MK1 B 902       9.441  28.036   9.489  1.00 28.00     0.001 A 
HETATM   39  C26 MK1 B 902       8.474  28.436   8.561  1.00 32.00     0.008 A 
HETATM   40  C24 MK1 B 902       7.624  27.874   6.075  1.00 32.05     0.073 C 
HETATM   41  C23 MK1 B 902       8.362  27.212   4.935  1.00 28.82     0.149 C 
BRANCH  41  42
HETATM   42  O4  MK1 B 902       9.224  28.086   4.221  1.00 28.32    -0.393 OA
HETATM   43  H4  MK1 B 902       8.814  28.937   4.114  1.00  0.00     0.210 HD
ENDBRANCH  41  42
ENDBRANCH  30  33
ENDBRANCH  28  29
BRANCH  28  44
HETATM   44  C14 MK1 B 902      10.948  23.323   2.560  1.00 28.67     0.052 C 
BRANCH  44  45
HETATM   45  C15 MK1 B 902       9.633  23.932   2.240  1.00 26.89    -0.057 A 
HETATM   46  C16 MK1 B 902       9.506  25.230   1.741  1.00 29.22     0.007 A 
HETATM   47  C17 MK1 B 902       8.254  25.771   1.490  1.00 29.22     0.001 A 
HETATM   48  C18 MK1 B 902       7.122  24.995   1.748  1.00 30.97     0.000 A 
HETATM   49  C19 MK1 B 902       7.244  23.691   2.241  1.00 29.25     0.001 A 
HETATM   50  C20 MK1 B 902       8.510  23.160   2.487  1.00 29.96     0.007 A 
ENDBRANCH  44  45
ENDBRANCH  28  44
ENDBRANCH  27  28
ENDBRANCH  24  27
ENDBRANCH  23  24
ENDBRANCH   4  23
TORSDOF 14
ENDMDL
MODEL 4
REMARK VINA RESULT:     -10.3      2.067     10.329
REMARK  14 active torsions:
REMARK  status: ('A' for Active; 'I' for Inactive)
REMARK    1  A    between atoms: N1_1  and  C31_43 
REMARK    2  A    between atoms: C2_3  and  C3_4 
REMARK       I    between atoms: C3_4  and  N2_6 
REMARK    3  A    between atoms: N2_6  and  C4_8 
REMARK    4  A    between atoms: N3_12  and  C10_15 
REMARK    5  A    between atoms: C10_15  and  C11_16 
REMARK    6  A    between atoms: C11_16  and  O2_17 
REMARK    7  A    between atoms: C11_16  and  C12_19 
REMARK    8  A    between atoms: C12_19  and  C13_20 
REMARK    9  A    between atoms: C13_20  and  C21_28 
REMARK   10  A    between atoms: C13_20  and  C14_21 
REMARK   11  A    between atoms: C14_21  and  C15_22 
REMARK       I    between atoms: C21_28  and  N4_30 
REMARK   12  A    between atoms: N4_30  and  C22_32 
REMARK   13  A    between atoms: C23_33  and  O4_34 
REMARK   14  A    between atoms: C31_43  and  C32_44 
ROOT
HETATM    1  N1  MK1 B 902      16.619  20.916   9.131  1.00 28.25     0.096 N 
HETATM    2  C1  MK1 B 902      16.140  20.221   7.906  1.00 30.30     0.307 C 
HETATM    3  C2  MK1 B 902      16.226  20.877   6.542  1.00 27.27     0.200 C 
HETATM    4  N3  MK1 B 902      15.425  22.133   6.757  1.00 28.91    -0.395 N 
HETATM    5  C8  MK1 B 902      15.582  22.875   8.033  1.00 26.24     0.148 C 
HETATM    6  C9  MK1 B 902      15.844  22.065   9.286  1.00 27.47     0.292 C 
ENDROOT
BRANCH   1   7
HETATM    7  C31 MK1 B 902      16.770  20.108  10.347  1.00 36.25     0.312 C 
BRANCH   7   8
HETATM    8  C32 MK1 B 902      17.328  18.681  10.293  1.00 42.75    -0.015 A 
HETATM    9  C36 MK1 B 902      16.681  17.713  11.030  1.00 44.71     0.011 A 
HETATM   10  C35 MK1 B 902      17.195  16.419  11.001  1.00 49.34     0.018 A 
HETATM   11  C34 MK1 B 902      18.335  16.139  10.242  1.00 50.60     0.087 A 
HETATM   12  N5  MK1 B 902      19.048  17.056   9.471  1.00 51.38    -0.375 N 
HETATM   13  C33 MK1 B 902      18.467  18.333   9.553  1.00 47.41     0.096 A 
HETATM   14  H5  MK1 B 902      19.878  16.831   8.923  1.00  0.00     0.164 HD
ENDBRANCH   7   8
ENDBRANCH   1   7
BRANCH   3  15
HETATM   15  C3  MK1 B 902      15.610  19.950   5.530  1.00 28.85     0.242 C 
HETATM   16  O1  MK1 B 902      14.468  19.536   5.686  1.00 29.59    -0.271 OA
HETATM   17  N2  MK1 B 902      16.357  19.607   4.500  1.00 22.29    -0.351 N 
HETATM   18  H2  MK1 B 902      17.312  19.967   4.524  1.00  0.00     0.163 HD
BRANCH  17  19
HETATM   19  C4  MK1 B 902      16.045  18.813   3.354  1.00 23.47     0.022 C 
HETATM   20  C7  MK1 B 902      17.203  18.541   2.497  1.00 22.75     0.037 C 
HETATM   21  C5  MK1 B 902      15.099  19.649   2.473  1.00 27.66     0.037 C 
HETATM   22  C6  MK1 B 902      15.461  17.597   3.672  1.00 21.71     0.037 C 
ENDBRANCH  17  19
ENDBRANCH   3  15
BRANCH   4  23
HETATM   23  C10 MK1 B 902      15.360  23.081   5.663  1.00 20.86     0.149 C 
BRANCH  23  24
HETATM   24  C11 MK1 B 902      13.950  23.310   5.116  1.00 21.68     0.136 C 
BRANCH  24  25
HETATM   25  O2  MK1 B 902      14.233  22.834   3.835  1.00 15.87    -0.394 OA
HETATM   26  H2  MK1 B 902      13.483  22.332   3.536  1.00  0.00     0.210 HD
ENDBRANCH  24  25
BRANCH  24  27
HETATM   27  C12 MK1 B 902      12.695  22.580   5.629  1.00 21.49     0.047 C 
BRANCH  27  28
HETATM   28  C13 MK1 B 902      11.328  23.279   5.624  1.00 26.89     0.084 C 
BRANCH  28  29
HETATM   29  C21 MK1 B 902      10.581  23.068   4.313  1.00 29.35     0.222 C 
HETATM   30  N4  MK1 B 902       9.407  23.687   4.219  1.00 31.19    -0.350 N 
HETATM   31  H4  MK1 B 902       8.966  24.049   5.065  1.00  0.00     0.163 HD
HETATM   32  O3  MK1 B 902      11.112  22.453   3.376  1.00 32.66    -0.273 OA
BRANCH  30  33
HETATM   33  C22 MK1 B 902       8.737  23.859   2.942  1.00 29.22     0.147 C 
HETATM   34  C30 MK1 B 902       7.186  23.879   2.919  1.00 31.86    -0.027 A 
HETATM   35  C29 MK1 B 902       6.235  23.195   3.608  1.00 27.70     0.010 A 
HETATM   36  C25 MK1 B 902       6.655  24.908   1.881  1.00 31.29    -0.047 A 
HETATM   37  C28 MK1 B 902       4.880  23.413   3.394  1.00 29.01     0.001 A 
HETATM   38  C27 MK1 B 902       4.414  24.355   2.465  1.00 28.00     0.001 A 
HETATM   39  C26 MK1 B 902       5.307  25.112   1.699  1.00 32.00     0.008 A 
HETATM   40  C24 MK1 B 902       7.945  25.478   1.345  1.00 32.05     0.073 C 
HETATM   41  C23 MK1 B 902       9.089  25.184   2.287  1.00 28.82     0.149 C 
BRANCH  41  42
HETATM   42  O4  MK1 B 902       9.292  26.182   3.277  1.00 28.32    -0.393 OA
HETATM   43  H4  MK1 B 902       8.762  25.998   4.044  1.00  0.00     0.210 HD
ENDBRANCH  41  42
ENDBRANCH  30  33
ENDBRANCH  28  29
BRANCH  28  44
HETATM   44  C14 MK1 B 902      11.444  24.790   5.893  1.00 28.67     0.052 C 
BRANCH  44  45
HETATM   45  C15 MK1 B 902      11.095  25.146   7.291  1.00 26.89    -0.057 A 
HETATM   46  C16 MK1 B 902      12.021  25.689   8.184  1.00 29.22     0.007 A 
HETATM   47  C17 MK1 B 902      11.660  25.973   9.492  1.00 29.22     0.001 A 
HETATM   48  C18 MK1 B 902      10.352  25.704   9.902  1.00 30.97     0.000 A 
HETATM   49  C19 MK1 B 902       9.418  25.167   9.008  1.00 29.25     0.001 A 
HETATM   50  C20 MK1 B 902       9.796  24.888   7.695  1.00 29.96     0.007 A 
ENDBRANCH  44  45
ENDBRANCH  28  44
ENDBRANCH  27  28
ENDBRANCH  24  27
ENDBRANCH  23  24
ENDBRANCH   4  23
TORSDOF 14
ENDMDL
MODEL 5
REMARK VINA RESULT:     -10.1      1.937     10.893
REMARK  14 active torsions:
REMARK  status: ('A' for Active; 'I' for Inactive)
REMARK    1  A    between atoms: N1_1  and  C31_43 
REMARK    2  A    between atoms: C2_3  and  C3_4 
REMARK       I    between atoms: C3_4  and  N2_6 
REMARK    3  A    between atoms: N2_6  and  C4_8 
REMARK    4  A    between atoms: N3_12  and  C10_15 
REMARK    5  A    between atoms: C10_15  and  C11_16 
REMARK    6  A    between atoms: C11_16  and  O2_17 
REMARK    7  A    between atoms: C11_16  and  C12_19 
REMARK    8  A    between atoms: C12_19  and  C13_20 
REMARK    9  A    between atoms: C13_20  and  C21_28 
REMARK   10  A    between atoms: C13_20  and  C14_21 
REMARK   11  A    between atoms: C14_21  and  C15_22 
REMARK       I    between atoms: C21_28  and  N4_30 
REMARK   12  A    between atoms: N4_30  and  C22_32 
REMARK   13  A    between atoms: C23_33  and  O4_34 
REMARK   14  A    between atoms: C31_43  and  C32_44 
ROOT
HETATM    1  N1  MK1 B 902      15.643  23.004   6.906  1.00 28.25     0.096 N 
HETATM    2  C1  MK1 B 902      15.577  21.654   6.285  1.00 30.30     0.307 C 
HETATM    3  C2  MK1 B 902      15.169  21.471   4.837  1.00 27.27     0.200 C 
HETATM    4  N3  MK1 B 902      13.803  22.101   4.823  1.00 28.91    -0.395 N 
HETATM    5  C8  MK1 B 902      13.584  23.358   5.582  1.00 26.24     0.148 C 
HETATM    6  C9  MK1 B 902      14.356  23.540   6.873  1.00 27.47     0.292 C 
ENDROOT
BRANCH   1   7
HETATM    7  C31 MK1 B 902      16.322  23.116   8.203  1.00 36.25     0.312 C 
BRANCH   7   8
HETATM    8  C32 MK1 B 902      16.890  21.882   8.915  1.00 42.75    -0.015 A 
HETATM    9  C36 MK1 B 902      16.009  21.082   9.610  1.00 44.71     0.011 A 
HETATM   10  C35 MK1 B 902      16.522  19.972  10.275  1.00 49.34     0.018 A 
HETATM   11  C34 MK1 B 902      17.893  19.702  10.226  1.00 50.60     0.087 A 
HETATM   12  N5  MK1 B 902      18.849  20.457   9.549  1.00 51.38    -0.375 N 
HETATM   13  C33 MK1 B 902      18.253  21.554   8.906  1.00 47.41     0.096 A 
HETATM   14  H5  MK1 B 902      19.846  20.242   9.525  1.00  0.00     0.164 HD
ENDBRANCH   7   8
ENDBRANCH   1   7
BRANCH   3  15
HETATM   15  C3  MK1 B 902      15.142  19.998   4.534  1.00 28.85     0.242 C 
HETATM   16  O1  MK1 B 902      14.475  19.237   5.224  1.00 29.59    -0.271 OA
HETATM   17  N2  MK1 B 902      15.871  19.582   3.517  1.00 22.29    -0.351 N 
HETATM   18  H2  MK1 B 902      16.432  20.307   3.068  1.00  0.00     0.163 HD
BRANCH  17  19
HETATM   19  C4  MK1 B 902      16.002  18.281   2.943  1.00 23.47     0.022 C 
HETATM   20  C7  MK1 B 902      16.529  17.280   3.876  1.00 22.75     0.037 C 
HETATM   21  C5  MK1 B 902      17.071  18.382   1.840  1.00 27.66     0.037 C 
HETATM   22  C6  MK1 B 902      14.816  17.789   2.423  1.00 21.71     0.037 C 
ENDBRANCH  17  19
ENDBRANCH   3  15
BRANCH   4  23
HETATM   23  C10 MK1 B 902      13.120  22.194   3.548  1.00 20.86     0.149 C 
BRANCH  23  24
HETATM   24  C11 MK1 B 902      11.869  23.073   3.570  1.00 21.68     0.136 C 
BRANCH  24  25
HETATM   25  O2  MK1 B 902      12.217  23.817   2.441  1.00 15.87    -0.394 OA
HETATM   26  H2  MK1 B 902      11.422  24.189   2.077  1.00  0.00     0.210 HD
ENDBRANCH  24  25
BRANCH  24  27
HETATM   27  C12 MK1 B 902      10.437  22.544   3.367  1.00 21.49     0.047 C 
BRANCH  27  28
HETATM   28  C13 MK1 B 902       9.265  23.516   3.168  1.00 26.89     0.084 C 
BRANCH  28  29
HETATM   29  C21 MK1 B 902       9.487  24.837   3.895  1.00 29.35     0.222 C 
HETATM   30  N4  MK1 B 902       9.469  24.767   5.223  1.00 31.19    -0.350 N 
HETATM   31  H4  MK1 B 902       9.085  23.936   5.673  1.00  0.00     0.163 HD
HETATM   32  O3  MK1 B 902       9.777  25.864   3.263  1.00 32.66    -0.273 OA
BRANCH  30  33
HETATM   33  C22 MK1 B 902       9.983  25.846   6.049  1.00 29.22     0.147 C 
HETATM   34  C30 MK1 B 902       8.981  26.649   6.921  1.00 31.86    -0.027 A 
HETATM   35  C29 MK1 B 902       7.706  27.074   6.723  1.00 27.70     0.010 A 
HETATM   36  C25 MK1 B 902       9.608  27.021   8.295  1.00 31.29    -0.047 A 
HETATM   37  C28 MK1 B 902       7.016  27.789   7.693  1.00 29.01     0.001 A 
HETATM   38  C27 MK1 B 902       7.588  28.107   8.934  1.00 28.00     0.001 A 
HETATM   39  C26 MK1 B 902       8.897  27.721   9.241  1.00 32.00     0.008 A 
HETATM   40  C24 MK1 B 902      10.972  26.386   8.177  1.00 32.05     0.073 C 
HETATM   41  C23 MK1 B 902      10.984  25.349   7.078  1.00 28.82     0.149 C 
BRANCH  41  42
HETATM   42  O4  MK1 B 902      10.634  24.044   7.514  1.00 28.32    -0.393 OA
HETATM   43  H4  MK1 B 902       9.729  24.026   7.806  1.00  0.00     0.210 HD
ENDBRANCH  41  42
ENDBRANCH  30  33
ENDBRANCH  28  29
BRANCH  28  44
HETATM   44  C14 MK1 B 902       7.925  22.915   3.627  1.00 28.67     0.052 C 
BRANCH  44  45
HETATM   45  C15 MK1 B 902       6.761  23.544   2.953  1.00 26.89    -0.057 A 
HETATM   46  C16 MK1 B 902       6.865  24.192   1.721  1.00 29.22     0.007 A 
HETATM   47  C17 MK1 B 902       5.757  24.798   1.146  1.00 29.22     0.001 A 
HETATM   48  C18 MK1 B 902       4.537  24.749   1.822  1.00 30.97     0.000 A 
HETATM   49  C19 MK1 B 902       4.427  24.093   3.055  1.00 29.25     0.001 A 
HETATM   50  C20 MK1 B 902       5.549  23.488   3.620  1.00 29.96     0.007 A 
ENDBRANCH  44  45
ENDBRANCH  28  44
ENDBRANCH  27  28
ENDBRANCH  24  27
ENDBRANCH  23  24
ENDBRANCH   4  23
TORSDOF 14
ENDMDL
MODEL 6
REMARK VINA RESULT:      -9.9      2.183     10.873
REMARK  14 active torsions:
REMARK  status: ('A' for Active; 'I' for Inactive)
REMARK    1  A    between atoms: N1_1  and  C31_43 
REMARK    2  A    between atoms: C2_3  and  C3_4 
REMARK       I    between atoms: C3_4  and  N2_6 
REMARK    3  A    between atoms: N2_6  and  C4_8 
REMARK    4  A    between atoms: N3_12  and  C10_15 
REMARK    5  A    between atoms: C10_15  and  C11_16 
REMARK    6  A    between atoms: C11_16  and  O2_17 
REMARK    7  A    between atoms: C11_16  and  C12_19 
REMARK    8  A    between atoms: C12_19  and  C13_20 
REMARK    9  A    between atoms: C13_20  and  C21_28 
REMARK   10  A    between atoms: C13_20  and  C14_21 
REMARK   11  A    between atoms: C14_21  and  C15_22 
REMARK       I    between atoms: C21_28  and  N4_30 
REMARK   12  A    between atoms: N4_30  and  C22_32 
REMARK   13  A    between atoms: C23_33  and  O4_34 
REMARK   14  A    between atoms: C31_43  and  C32_44 
ROOT
HETATM    1  N1  MK1 B 902      14.110  22.415   7.419  1.00 28.25     0.096 N 
HETATM    2  C1  MK1 B 902      14.489  21.642   6.206  1.00 30.30     0.307 C 
HETATM    3  C2  MK1 B 902      14.213  22.175   4.814  1.00 27.27     0.200 C 
HETATM    4  N3  MK1 B 902      12.720  22.362   4.849  1.00 28.91    -0.395 N 
HETATM    5  C8  MK1 B 902      12.095  22.916   6.076  1.00 26.24     0.148 C 
HETATM    6  C9  MK1 B 902      12.723  22.555   7.407  1.00 27.47     0.292 C 
ENDROOT
BRANCH   1   7
HETATM    7  C31 MK1 B 902      14.672  21.971   8.701  1.00 36.25     0.312 C 
BRANCH   7   8
HETATM    8  C32 MK1 B 902      16.146  21.572   8.831  1.00 42.75    -0.015 A 
HETATM    9  C36 MK1 B 902      16.429  20.339   9.378  1.00 44.71     0.011 A 
HETATM   10  C35 MK1 B 902      17.767  19.979   9.517  1.00 49.34     0.018 A 
HETATM   11  C34 MK1 B 902      18.773  20.861   9.110  1.00 50.60     0.087 A 
HETATM   12  N5  MK1 B 902      18.573  22.122   8.550  1.00 51.38    -0.375 N 
HETATM   13  C33 MK1 B 902      17.202  22.409   8.443  1.00 47.41     0.096 A 
HETATM   14  H5  MK1 B 902      19.321  22.751   8.259  1.00  0.00     0.164 HD
ENDBRANCH   7   8
ENDBRANCH   1   7
BRANCH   3  15
HETATM   15  C3  MK1 B 902      14.654  21.141   3.814  1.00 28.85     0.242 C 
HETATM   16  O1  MK1 B 902      14.756  21.430   2.629  1.00 29.59    -0.271 OA
HETATM   17  N2  MK1 B 902      14.903  19.931   4.275  1.00 22.29    -0.351 N 
HETATM   18  H2  MK1 B 902      14.714  19.804   5.270  1.00  0.00     0.163 HD
BRANCH  17  19
HETATM   19  C4  MK1 B 902      15.396  18.770   3.606  1.00 23.47     0.022 C 
HETATM   20  C7  MK1 B 902      15.243  17.536   4.384  1.00 22.75     0.037 C 
HETATM   21  C5  MK1 B 902      16.918  18.948   3.459  1.00 27.66     0.037 C 
HETATM   22  C6  MK1 B 902      14.813  18.561   2.367  1.00 21.71     0.037 C 
ENDBRANCH  17  19
ENDBRANCH   3  15
BRANCH   4  23
HETATM   23  C10 MK1 B 902      12.091  22.957   3.687  1.00 20.86     0.149 C 
BRANCH  23  24
HETATM   24  C11 MK1 B 902      11.443  24.317   3.954  1.00 21.68     0.136 C 
BRANCH  24  25
HETATM   25  O2  MK1 B 902      12.255  25.021   3.062  1.00 15.87    -0.394 OA
HETATM   26  H2  MK1 B 902      12.161  25.948   3.249  1.00  0.00     0.210 HD
ENDBRANCH  24  25
BRANCH  24  27
HETATM   27  C12 MK1 B 902       9.976  24.653   3.629  1.00 21.49     0.047 C 
BRANCH  27  28
HETATM   28  C13 MK1 B 902       9.085  25.348   4.669  1.00 26.89     0.084 C 
BRANCH  28  29
HETATM   29  C21 MK1 B 902       7.805  25.898   4.050  1.00 29.35     0.222 C 
HETATM   30  N4  MK1 B 902       6.677  25.353   4.497  1.00 31.19    -0.350 N 
HETATM   31  H4  MK1 B 902       6.718  24.475   5.015  1.00  0.00     0.163 HD
HETATM   32  O3  MK1 B 902       7.843  26.865   3.275  1.00 32.66    -0.273 OA
BRANCH  30  33
HETATM   33  C22 MK1 B 902       5.386  25.977   4.263  1.00 29.22     0.147 C 
HETATM   34  C30 MK1 B 902       4.180  25.068   3.907  1.00 31.86    -0.027 A 
HETATM   35  C29 MK1 B 902       4.052  23.943   3.155  1.00 27.70     0.010 A 
HETATM   36  C25 MK1 B 902       2.872  25.588   4.568  1.00 31.29    -0.047 A 
HETATM   37  C28 MK1 B 902       2.828  23.306   2.999  1.00 29.01     0.001 A 
HETATM   38  C27 MK1 B 902       1.657  23.777   3.612  1.00 28.00     0.001 A 
HETATM   39  C26 MK1 B 902       1.676  24.929   4.405  1.00 32.00     0.008 A 
HETATM   40  C24 MK1 B 902       3.382  26.792   5.321  1.00 32.05     0.073 C 
HETATM   41  C23 MK1 B 902       4.882  26.720   5.489  1.00 28.82     0.149 C 
BRANCH  41  42
HETATM   42  O4  MK1 B 902       5.297  26.054   6.673  1.00 28.32    -0.393 OA
HETATM   43  H4  MK1 B 902       5.570  25.166   6.472  1.00  0.00     0.210 HD
ENDBRANCH  41  42
ENDBRANCH  30  33
ENDBRANCH  28  29
BRANCH  28  44
HETATM   44  C14 MK1 B 902       9.818  26.490   5.394  1.00 28.67     0.052 C 
BRANCH  44  45
HETATM   45  C15 MK1 B 902       9.926  26.257   6.856  1.00 26.89    -0.057 A 
HETATM   46  C16 MK1 B 902      11.144  25.996   7.488  1.00 29.22     0.007 A 
HETATM   47  C17 MK1 B 902      11.193  25.747   8.852  1.00 29.22     0.001 A 
HETATM   48  C18 MK1 B 902      10.002  25.762   9.581  1.00 30.97     0.000 A 
HETATM   49  C19 MK1 B 902       8.780  26.031   8.953  1.00 29.25     0.001 A 
HETATM   50  C20 MK1 B 902       8.747  26.280   7.581  1.00 29.96     0.007 A 
ENDBRANCH  44  45
ENDBRANCH  28  44
ENDBRANCH  27  28
ENDBRANCH  24  27
ENDBRANCH  23  24
ENDBRANCH   4  23
TORSDOF 14
ENDMDL
MODEL 7
REMARK VINA RESULT:      -9.8      2.108     10.577
REMARK  14 active torsions:
REMARK  status: ('A' for Active; 'I' for Inactive)
REMARK    1  A    between atoms: N1_1  and  C31_43 
REMARK    2  A    between atoms: C2_3  and  C3_4 
REMARK       I    between atoms: C3_4  and  N2_6 
REMARK    3  A    between atoms: N2_6  and  C4_8 
REMARK    4  A    between atoms: N3_12  and  C10_15 
REMARK    5  A    between atoms: C10_15  and  C11_16 
REMARK    6  A    between atoms: C11_16  and  O2_17 
REMARK    7  A    between atoms: C11_16  and  C12_19 
REMARK    8  A    between atoms: C12_19  and  C13_20 
REMARK    9  A    between atoms: C13_20  and  C21_28 
REMARK   10  A    between atoms: C13_20  and  C14_21 
REMARK   11  A    between atoms: C14_21  and  C15_22 
REMARK       I    between atoms: C21_28  and  N4_30 
REMARK   12  A    between atoms: N4_30  and  C22_32 
REMARK   13  A    between atoms: C23_33  and  O4_34 
REMARK   14  A    between atoms: C31_43  and  C32_44 
ROOT
HETATM    1  N1  MK1 B 902      15.930  22.405   7.578  1.00 28.25     0.096 N 
HETATM    2  C1  MK1 B 902      15.866  21.470   6.422  1.00 30.30     0.307 C 
HETATM    3  C2  MK1 B 902      14.958  21.740   5.239  1.00 27.27     0.200 C 
HETATM    4  N3  MK1 B 902      13.609  21.818   5.901  1.00 28.91    -0.395 N 
HETATM    5  C8  MK1 B 902      13.488  22.521   7.202  1.00 26.24     0.148 C 
HETATM    6  C9  MK1 B 902      14.661  22.437   8.157  1.00 27.47     0.292 C 
ENDROOT
BRANCH   1   7
HETATM    7  C31 MK1 B 902      17.034  22.226   8.528  1.00 36.25     0.312 C 
BRANCH   7   8
HETATM    8  C32 MK1 B 902      17.261  20.890   9.245  1.00 42.75    -0.015 A 
HETATM    9  C36 MK1 B 902      18.564  20.490   9.456  1.00 44.71     0.011 A 
HETATM   10  C35 MK1 B 902      18.776  19.268  10.089  1.00 49.34     0.018 A 
HETATM   11  C34 MK1 B 902      17.685  18.490  10.487  1.00 50.60     0.087 A 
HETATM   12  N5  MK1 B 902      16.342  18.820  10.313  1.00 51.38    -0.375 N 
HETATM   13  C33 MK1 B 902      16.212  20.062   9.670  1.00 47.41     0.096 A 
HETATM   14  H5  MK1 B 902      15.559  18.237  10.612  1.00  0.00     0.164 HD
ENDBRANCH   7   8
ENDBRANCH   1   7
BRANCH   3  15
HETATM   15  C3  MK1 B 902      15.078  20.589   4.277  1.00 28.85     0.242 C 
HETATM   16  O1  MK1 B 902      14.633  20.684   3.140  1.00 29.59    -0.271 OA
HETATM   17  N2  MK1 B 902      15.663  19.495   4.724  1.00 22.29    -0.351 N 
HETATM   18  H2  MK1 B 902      15.927  19.522   5.709  1.00  0.00     0.163 HD
BRANCH  17  19
HETATM   19  C4  MK1 B 902      15.985  18.277   4.051  1.00 23.47     0.022 C 
HETATM   20  C7  MK1 B 902      16.990  17.470   4.749  1.00 22.75     0.037 C 
HETATM   21  C5  MK1 B 902      16.656  18.664   2.720  1.00 27.66     0.037 C 
HETATM   22  C6  MK1 B 902      14.883  17.470   3.818  1.00 21.71     0.037 C 
ENDBRANCH  17  19
ENDBRANCH   3  15
BRANCH   4  23
HETATM   23  C10 MK1 B 902      12.473  22.161   5.069  1.00 20.86     0.149 C 
BRANCH  23  24
HETATM   24  C11 MK1 B 902      12.632  23.477   4.306  1.00 21.68     0.136 C 
BRANCH  24  25
HETATM   25  O2  MK1 B 902      12.679  22.886   3.042  1.00 15.87    -0.394 OA
HETATM   26  H2  MK1 B 902      11.932  23.196   2.544  1.00  0.00     0.210 HD
ENDBRANCH  24  25
BRANCH  24  27
HETATM   27  C12 MK1 B 902      11.567  24.589   4.271  1.00 21.49     0.047 C 
BRANCH  27  28
HETATM   28  C13 MK1 B 902      10.176  24.359   4.879  1.00 26.89     0.084 C 
BRANCH  28  29
HETATM   29  C21 MK1 B 902       9.241  23.642   3.913  1.00 29.35     0.222 C 
HETATM   30  N4  MK1 B 902       7.998  24.116   3.865  1.00 31.19    -0.350 N 
HETATM   31  H4  MK1 B 902       7.673  24.736   4.606  1.00  0.00     0.163 HD
HETATM   32  O3  MK1 B 902       9.671  22.758   3.157  1.00 32.66    -0.273 OA
BRANCH  30  33
HETATM   33  C22 MK1 B 902       7.094  23.771   2.782  1.00 29.22     0.147 C 
HETATM   34  C30 MK1 B 902       5.606  23.495   3.123  1.00 31.86    -0.027 A 
HETATM   35  C29 MK1 B 902       4.987  22.883   4.167  1.00 27.70     0.010 A 
HETATM   36  C25 MK1 B 902       4.665  24.050   2.015  1.00 31.29    -0.047 A 
HETATM   37  C28 MK1 B 902       3.605  22.772   4.232  1.00 29.01     0.001 A 
HETATM   38  C27 MK1 B 902       2.766  23.290   3.234  1.00 28.00     0.001 A 
HETATM   39  C26 MK1 B 902       3.299  23.935   2.112  1.00 32.00     0.008 A 
HETATM   40  C24 MK1 B 902       5.662  24.663   1.063  1.00 32.05     0.073 C 
HETATM   41  C23 MK1 B 902       6.991  24.881   1.750  1.00 28.82     0.149 C 
BRANCH  41  42
HETATM   42  O4  MK1 B 902       7.113  26.149   2.378  1.00 28.32    -0.393 OA
HETATM   43  H4  MK1 B 902       7.940  26.208   2.841  1.00  0.00     0.210 HD
ENDBRANCH  41  42
ENDBRANCH  30  33
ENDBRANCH  28  29
BRANCH  28  44
HETATM   44  C14 MK1 B 902       9.513  25.672   5.330  1.00 28.67     0.052 C 
BRANCH  44  45
HETATM   45  C15 MK1 B 902       9.654  25.907   6.790  1.00 26.89    -0.057 A 
HETATM   46  C16 MK1 B 902       9.770  24.864   7.711  1.00 29.22     0.007 A 
HETATM   47  C17 MK1 B 902       9.863  25.129   9.070  1.00 29.22     0.001 A 
HETATM   48  C18 MK1 B 902       9.836  26.457   9.499  1.00 30.97     0.000 A 
HETATM   49  C19 MK1 B 902       9.728  27.506   8.578  1.00 29.25     0.001 A 
HETATM   50  C20 MK1 B 902       9.636  27.224   7.215  1.00 29.96     0.007 A 
ENDBRANCH  44  45
ENDBRANCH  28  44
ENDBRANCH  27  28
ENDBRANCH  24  27
ENDBRANCH  23  24
ENDBRANCH   4  23
TORSDOF 14
ENDMDL
MODEL 8
REMARK VINA RESULT:      -9.8      2.428      5.579
REMARK  14 active torsions:
REMARK  status: ('A' for Active; 'I' for Inactive)
REMARK    1  A    between atoms: N1_1  and  C31_43 
REMARK    2  A    between atoms: C2_3  and  C3_4 
REMARK       I    between atoms: C3_4  and  N2_6 
REMARK    3  A    between atoms: N2_6  and  C4_8 
REMARK    4  A    between atoms: N3_12  and  C10_15 
REMARK    5  A    between atoms: C10_15  and  C11_16 
REMARK    6  A    between atoms: C11_16  and  O2_17 
REMARK    7  A    between atoms: C11_16  and  C12_19 
REMARK    8  A    between atoms: C12_19  and  C13_20 
REMARK    9  A    between atoms: C13_20  and  C21_28 
REMARK   10  A    between atoms: C13_20  and  C14_21 
REMARK   11  A    between atoms: C14_21  and  C15_22 
REMARK       I    between atoms: C21_28  and  N4_30 
REMARK   12  A    between atoms: N4_30  and  C22_32 
REMARK   13  A    between atoms: C23_33  and  O4_34 
REMARK   14  A    between atoms: C31_43  and  C32_44 
ROOT
HETATM    1  N1  MK1 B 902      12.545  24.290   4.267  1.00 28.25     0.096 N 
HETATM    2  C1  MK1 B 902      11.939  24.882   5.490  1.00 30.30     0.307 C 
HETATM    3  C2  MK1 B 902      12.769  25.157   6.728  1.00 27.27     0.200 C 
HETATM    4  N3  MK1 B 902      13.311  23.789   7.042  1.00 28.91    -0.395 N 
HETATM    5  C8  MK1 B 902      13.768  22.923   5.926  1.00 26.24     0.148 C 
HETATM    6  C9  MK1 B 902      13.025  23.027   4.610  1.00 27.47     0.292 C 
ENDROOT
BRANCH   1   7
HETATM    7  C31 MK1 B 902      11.749  24.331   3.035  1.00 36.25     0.312 C 
BRANCH   7   8
HETATM    8  C32 MK1 B 902      10.256  23.980   3.036  1.00 42.75    -0.015 A 
HETATM    9  C36 MK1 B 902       9.372  24.945   2.604  1.00 44.71     0.011 A 
HETATM   10  C35 MK1 B 902       8.013  24.639   2.622  1.00 49.34     0.018 A 
HETATM   11  C34 MK1 B 902       7.587  23.386   3.072  1.00 50.60     0.087 A 
HETATM   12  N5  MK1 B 902       8.413  22.357   3.524  1.00 51.38    -0.375 N 
HETATM   13  C33 MK1 B 902       9.762  22.743   3.474  1.00 47.41     0.096 A 
HETATM   14  H5  MK1 B 902       8.081  21.448   3.848  1.00  0.00     0.164 HD
ENDBRANCH   7   8
ENDBRANCH   1   7
BRANCH   3  15
HETATM   15  C3  MK1 B 902      11.859  25.692   7.800  1.00 28.85     0.242 C 
HETATM   16  O1  MK1 B 902      12.243  25.758   8.961  1.00 29.59    -0.271 OA
HETATM   17  N2  MK1 B 902      10.650  26.062   7.428  1.00 22.29    -0.351 N 
HETATM   18  H2  MK1 B 902      10.433  25.892   6.445  1.00  0.00     0.163 HD
BRANCH  17  19
HETATM   19  C4  MK1 B 902       9.594  26.663   8.179  1.00 23.47     0.022 C 
HETATM   20  C7  MK1 B 902       9.119  25.832   9.290  1.00 22.75     0.037 C 
HETATM   21  C5  MK1 B 902       8.382  26.780   7.237  1.00 27.66     0.037 C 
HETATM   22  C6  MK1 B 902       9.926  27.906   8.695  1.00 21.71     0.037 C 
ENDBRANCH  17  19
ENDBRANCH   3  15
BRANCH   4  23
HETATM   23  C10 MK1 B 902      14.246  23.675   8.143  1.00 20.86     0.149 C 
BRANCH  23  24
HETATM   24  C11 MK1 B 902      15.538  22.934   7.794  1.00 21.68     0.136 C 
BRANCH  24  25
HETATM   25  O2  MK1 B 902      16.365  24.049   7.935  1.00 15.87    -0.394 OA
HETATM   26  H2  MK1 B 902      16.180  24.449   8.776  1.00  0.00     0.210 HD
ENDBRANCH  24  25
BRANCH  24  27
HETATM   27  C12 MK1 B 902      16.133  21.790   8.635  1.00 21.49     0.047 C 
BRANCH  27  28
HETATM   28  C13 MK1 B 902      16.539  20.465   7.976  1.00 26.89     0.084 C 
BRANCH  28  29
HETATM   29  C21 MK1 B 902      17.619  19.737   8.770  1.00 29.35     0.222 C 
HETATM   30  N4  MK1 B 902      17.175  18.950   9.746  1.00 31.19    -0.350 N 
HETATM   31  H4  MK1 B 902      16.212  19.049  10.067  1.00  0.00     0.163 HD
HETATM   32  O3  MK1 B 902      18.809  19.808   8.428  1.00 32.66    -0.273 OA
BRANCH  30  33
HETATM   33  C22 MK1 B 902      18.030  17.952  10.366  1.00 29.22     0.147 C 
HETATM   34  C30 MK1 B 902      18.772  18.327  11.675  1.00 31.86    -0.027 A 
HETATM   35  C29 MK1 B 902      19.362  19.469  12.117  1.00 27.70     0.010 A 
HETATM   36  C25 MK1 B 902      18.827  17.120  12.654  1.00 31.29    -0.047 A 
HETATM   37  C28 MK1 B 902      19.967  19.541  13.365  1.00 29.01     0.001 A 
HETATM   38  C27 MK1 B 902      19.998  18.449  14.245  1.00 28.00     0.001 A 
HETATM   39  C26 MK1 B 902      19.423  17.224  13.888  1.00 32.00     0.008 A 
HETATM   40  C24 MK1 B 902      18.076  16.072  11.870  1.00 32.05     0.073 C 
HETATM   41  C23 MK1 B 902      17.253  16.712  10.776  1.00 28.82     0.149 C 
BRANCH  41  42
HETATM   42  O4  MK1 B 902      15.938  17.066  11.178  1.00 28.32    -0.393 OA
HETATM   43  H4  MK1 B 902      15.801  18.001  11.070  1.00  0.00     0.210 HD
ENDBRANCH  41  42
ENDBRANCH  30  33
ENDBRANCH  28  29
BRANCH  28  44
HETATM   44  C14 MK1 B 902      17.030  20.659   6.531  1.00 28.67     0.052 C 
BRANCH  44  45
HETATM   45  C15 MK1 B 902      16.600  19.558   5.633  1.00 26.89    -0.057 A 
HETATM   46  C16 MK1 B 902      15.256  19.282   5.372  1.00 29.22     0.007 A 
HETATM   47  C17 MK1 B 902      14.899  18.220   4.554  1.00 29.22     0.001 A 
HETATM   48  C18 MK1 B 902      15.907  17.430   3.998  1.00 30.97     0.000 A 
HETATM   49  C19 MK1 B 902      17.256  17.709   4.250  1.00 29.25     0.001 A 
HETATM   50  C20 MK1 B 902      17.600  18.781   5.074  1.00 29.96     0.007 A 
ENDBRANCH  44  45
ENDBRANCH  28  44
ENDBRANCH  27  28
ENDBRANCH  24  27
ENDBRANCH  23  24
ENDBRANCH   4  23
TORSDOF 14
ENDMDL
MODEL 9
REMARK VINA RESULT:      -9.7      1.626      2.797
REMARK  14 active torsions:
REMARK  status: ('A' for Active; 'I' for Inactive)
REMARK    1  A    between atoms: N1_1  and  C31_43 
REMARK    2  A    between atoms: C2_3  and  C3_4 
REMARK       I    between atoms: C3_4  and  N2_6 
REMARK    3  A    between atoms: N2_6  and  C4_8 
REMARK    4  A    between atoms: N3_12  and  C10_15 
REMARK    5  A    between atoms: C10_15  and  C11_16 
REMARK    6  A    between atoms: C11_16  and  O2_17 
REMARK    7  A    between atoms: C11_16  and  C12_19 
REMARK    8  A    between atoms: C12_19  and  C13_20 
REMARK    9  A    between atoms: C13_20  and  C21_28 
REMARK   10  A    between atoms: C13_20  and  C14_21 
REMARK   11  A    between atoms: C14_21  and  C15_22 
REMARK       I    between atoms: C21_28  and  N4_30 
REMARK   12  A    between atoms: N4_30  and  C22_32 
REMARK   13  A    between atoms: C23_33  and  O4_34 
REMARK   14  A    between atoms: C31_43  and  C32_44 
ROOT
HETATM    1  N1  MK1 B 902      12.517  24.463   4.402  1.00 28.25     0.096 N 
HETATM    2  C1  MK1 B 902      12.027  24.998   5.700  1.00 30.30     0.307 C 
HETATM    3  C2  MK1 B 902      12.972  25.241   6.860  1.00 27.27     0.200 C 
HETATM    4  N3  MK1 B 902      13.559  23.871   7.067  1.00 28.91    -0.395 N 
HETATM    5  C8  MK1 B 902      13.915  23.055   5.879  1.00 26.24     0.148 C 
HETATM    6  C9  MK1 B 902      13.044  23.195   4.647  1.00 27.47     0.292 C 
ENDROOT
BRANCH   1   7
HETATM    7  C31 MK1 B 902      11.602  24.537   3.256  1.00 36.25     0.312 C 
BRANCH   7   8
HETATM    8  C32 MK1 B 902      10.173  23.987   3.338  1.00 42.75    -0.015 A 
HETATM    9  C36 MK1 B 902       9.937  22.739   2.801  1.00 44.71     0.011 A 
HETATM   10  C35 MK1 B 902       8.637  22.243   2.854  1.00 49.34     0.018 A 
HETATM   11  C34 MK1 B 902       7.622  23.007   3.438  1.00 50.60     0.087 A 
HETATM   12  N5  MK1 B 902       7.776  24.273   4.002  1.00 51.38    -0.375 N 
HETATM   13  C33 MK1 B 902       9.110  24.701   3.909  1.00 47.41     0.096 A 
HETATM   14  H5  MK1 B 902       7.022  24.814   4.424  1.00  0.00     0.164 HD
ENDBRANCH   7   8
ENDBRANCH   1   7
BRANCH   3  15
HETATM   15  C3  MK1 B 902      12.166  25.721   8.036  1.00 28.85     0.242 C 
HETATM   16  O1  MK1 B 902      12.715  25.976   9.100  1.00 29.59    -0.271 OA
HETATM   17  N2  MK1 B 902      10.864  25.834   7.862  1.00 22.29    -0.351 N 
HETATM   18  H2  MK1 B 902      10.524  25.526   6.951  1.00  0.00     0.163 HD
BRANCH  17  19
HETATM   19  C4  MK1 B 902       9.852  26.320   8.745  1.00 23.47     0.022 C 
HETATM   20  C7  MK1 B 902       8.496  26.220   8.194  1.00 22.75     0.037 C 
HETATM   21  C5  MK1 B 902      10.091  27.831   8.915  1.00 27.66     0.037 C 
HETATM   22  C6  MK1 B 902       9.852  25.689   9.980  1.00 21.71     0.037 C 
ENDBRANCH  17  19
ENDBRANCH   3  15
BRANCH   4  23
HETATM   23  C10 MK1 B 902      14.600  23.732   8.066  1.00 20.86     0.149 C 
BRANCH  23  24
HETATM   24  C11 MK1 B 902      15.865  23.039   7.558  1.00 21.68     0.136 C 
BRANCH  24  25
HETATM   25  O2  MK1 B 902      16.425  24.190   7.002  1.00 15.87    -0.394 OA
HETATM   26  H2  MK1 B 902      15.944  24.398   6.210  1.00  0.00     0.210 HD
ENDBRANCH  24  25
BRANCH  24  27
HETATM   27  C12 MK1 B 902      16.921  22.390   8.472  1.00 21.49     0.047 C 
BRANCH  27  28
HETATM   28  C13 MK1 B 902      17.029  20.862   8.580  1.00 26.89     0.084 C 
BRANCH  28  29
HETATM   29  C21 MK1 B 902      16.384  20.157   7.393  1.00 29.35     0.222 C 
HETATM   30  N4  MK1 B 902      17.231  19.596   6.534  1.00 31.19    -0.350 N 
HETATM   31  H4  MK1 B 902      18.217  19.855   6.566  1.00  0.00     0.163 HD
HETATM   32  O3  MK1 B 902      15.152  20.034   7.325  1.00 32.66    -0.273 OA
BRANCH  30  33
HETATM   33  C22 MK1 B 902      16.786  18.623   5.552  1.00 29.22     0.147 C 
HETATM   34  C30 MK1 B 902      16.093  19.139   4.263  1.00 31.86    -0.027 A 
HETATM   35  C29 MK1 B 902      15.227  20.157   4.015  1.00 27.70     0.010 A 
HETATM   36  C25 MK1 B 902      16.504  18.288   3.028  1.00 31.29    -0.047 A 
HETATM   37  C28 MK1 B 902      14.752  20.413   2.736  1.00 29.01     0.001 A 
HETATM   38  C27 MK1 B 902      15.140  19.648   1.627  1.00 28.00     0.001 A 
HETATM   39  C26 MK1 B 902      16.025  18.573   1.770  1.00 32.00     0.008 A 
HETATM   40  C24 MK1 B 902      17.460  17.303   3.654  1.00 32.05     0.073 C 
HETATM   41  C23 MK1 B 902      17.940  17.805   4.996  1.00 28.82     0.149 C 
BRANCH  41  42
HETATM   42  O4  MK1 B 902      19.116  18.598   4.927  1.00 28.32    -0.393 OA
HETATM   43  H4  MK1 B 902      19.615  18.516   5.732  1.00  0.00     0.210 HD
ENDBRANCH  41  42
ENDBRANCH  30  33
ENDBRANCH  28  29
BRANCH  28  44
HETATM   44  C14 MK1 B 902      16.403  20.324   9.879  1.00 28.67     0.052 C 
BRANCH  44  45
HETATM   45  C15 MK1 B 902      17.249  19.293  10.532  1.00 26.89    -0.057 A 
HETATM   46  C16 MK1 B 902      18.580  19.524  10.883  1.00 29.22     0.007 A 
HETATM   47  C17 MK1 B 902      19.344  18.519  11.458  1.00 29.22     0.001 A 
HETATM   48  C18 MK1 B 902      18.757  17.271  11.678  1.00 30.97     0.000 A 
HETATM   49  C19 MK1 B 902      17.420  17.038  11.335  1.00 29.25     0.001 A 
HETATM   50  C20 MK1 B 902      16.665  18.058  10.758  1.00 29.96     0.007 A 
ENDBRANCH  44  45
ENDBRANCH  28  44
ENDBRANCH  27  28
ENDBRANCH  24  27
ENDBRANCH  23  24
ENDBRANCH   4  23
TORSDOF 14
ENDMDL
MODEL 10
REMARK VINA RESULT:      -9.3      2.077     10.673
REMARK  14 active torsions:
REMARK  status: ('A' for Active; 'I' for Inactive)
REMARK    1  A    between atoms: N1_1  and  C31_43 
REMARK    2  A    between atoms: C2_3  and  C3_4 
REMARK       I    between atoms: C3_4  and  N2_6 
REMARK    3  A    between atoms: N2_6  and  C4_8 
REMARK    4  A    between atoms: N3_12  and  C10_15 
REMARK    5  A    between atoms: C10_15  and  C11_16 
REMARK    6  A    between atoms: C11_16  and  O2_17 
REMARK    7  A    between atoms: C11_16  and  C12_19 
REMARK    8  A    between atoms: C12_19  and  C13_20 
REMARK    9  A    between atoms: C13_20  and  C21_28 
REMARK   10  A    between atoms: C13_20  and  C14_21 
REMARK   11  A    between atoms: C14_21  and  C15_22 
REMARK       I    between atoms: C21_28  and  N4_30 
REMARK   12  A    between atoms: N4_30  and  C22_32 
REMARK   13  A    between atoms: C23_33  and  O4_34 
REMARK   14  A    between atoms: C31_43  and  C32_44 
ROOT
HETATM    1  N1  MK1 B 902      15.269  19.674   3.778  1.00 28.25     0.096 N 
HETATM    2  C1  MK1 B 902      15.364  20.330   5.110  1.00 30.30     0.307 C 
HETATM    3  C2  MK1 B 902      14.195  21.098   5.695  1.00 27.27     0.200 C 
HETATM    4  N3  MK1 B 902      13.953  22.139   4.635  1.00 28.91    -0.395 N 
HETATM    5  C8  MK1 B 902      14.038  21.742   3.207  1.00 26.24     0.148 C 
HETATM    6  C9  MK1 B 902      15.051  20.678   2.835  1.00 27.47     0.292 C 
ENDROOT
BRANCH   1   7
HETATM    7  C31 MK1 B 902      16.325  18.718   3.424  1.00 36.25     0.312 C 
BRANCH   7   8
HETATM    8  C32 MK1 B 902      17.296  18.173   4.479  1.00 42.75    -0.015 A 
HETATM    9  C36 MK1 B 902      17.315  16.810   4.687  1.00 44.71     0.011 A 
HETATM   10  C35 MK1 B 902      18.180  16.311   5.657  1.00 49.34     0.018 A 
HETATM   11  C34 MK1 B 902      18.991  17.188   6.385  1.00 50.60     0.087 A 
HETATM   12  N5  MK1 B 902      19.033  18.573   6.238  1.00 51.38    -0.375 N 
HETATM   13  C33 MK1 B 902      18.135  18.996   5.243  1.00 47.41     0.096 A 
HETATM   14  H5  MK1 B 902      19.633  19.196   6.779  1.00  0.00     0.164 HD
ENDBRANCH   7   8
ENDBRANCH   1   7
BRANCH   3  15
HETATM   15  C3  MK1 B 902      14.626  21.687   7.011  1.00 28.85     0.242 C 
HETATM   16  O1  MK1 B 902      13.825  22.298   7.707  1.00 29.59    -0.271 OA
HETATM   17  N2  MK1 B 902      15.889  21.522   7.355  1.00 22.29    -0.351 N 
HETATM   18  H2  MK1 B 902      16.466  21.054   6.656  1.00  0.00     0.163 HD
BRANCH  17  19
HETATM   19  C4  MK1 B 902      16.577  21.894   8.550  1.00 23.47     0.022 C 
HETATM   20  C7  MK1 B 902      17.972  21.442   8.587  1.00 22.75     0.037 C 
HETATM   21  C5  MK1 B 902      15.897  21.147   9.712  1.00 27.66     0.037 C 
HETATM   22  C6  MK1 B 902      16.571  23.260   8.785  1.00 21.71     0.037 C 
ENDBRANCH  17  19
ENDBRANCH   3  15
BRANCH   4  23
HETATM   23  C10 MK1 B 902      12.821  23.025   4.813  1.00 20.86     0.149 C 
BRANCH  23  24
HETATM   24  C11 MK1 B 902      11.511  22.309   5.147  1.00 21.68     0.136 C 
BRANCH  24  25
HETATM   25  O2  MK1 B 902      11.322  22.955   6.370  1.00 15.87    -0.394 OA
HETATM   26  H2  MK1 B 902      10.459  22.724   6.694  1.00  0.00     0.210 HD
ENDBRANCH  24  25
BRANCH  24  27
HETATM   27  C12 MK1 B 902      10.215  22.452   4.328  1.00 21.49     0.047 C 
BRANCH  27  28
HETATM   28  C13 MK1 B 902      10.124  23.467   3.179  1.00 26.89     0.084 C 
BRANCH  28  29
HETATM   29  C21 MK1 B 902       9.758  24.861   3.673  1.00 29.35     0.222 C 
HETATM   30  N4  MK1 B 902       9.377  24.932   4.946  1.00 31.19    -0.350 N 
HETATM   31  H4  MK1 B 902       9.121  24.076   5.438  1.00  0.00     0.163 HD
HETATM   32  O3  MK1 B 902       9.925  25.852   2.948  1.00 32.66    -0.273 OA
BRANCH  30  33
HETATM   33  C22 MK1 B 902       9.315  26.200   5.652  1.00 29.22     0.147 C 
HETATM   34  C30 MK1 B 902       7.929  26.868   5.851  1.00 31.86    -0.027 A 
HETATM   35  C29 MK1 B 902       6.821  26.964   5.070  1.00 27.70     0.010 A 
HETATM   36  C25 MK1 B 902       7.833  27.554   7.244  1.00 31.29    -0.047 A 
HETATM   37  C28 MK1 B 902       5.681  27.630   5.501  1.00 29.01     0.001 A 
HETATM   38  C27 MK1 B 902       5.601  28.233   6.765  1.00 28.00     0.001 A 
HETATM   39  C26 MK1 B 902       6.687  28.197   7.648  1.00 32.00     0.008 A 
HETATM   40  C24 MK1 B 902       9.187  27.231   7.825  1.00 32.05     0.073 C 
HETATM   41  C23 MK1 B 902       9.829  26.085   7.077  1.00 28.82     0.149 C 
BRANCH  41  42
HETATM   42  O4  MK1 B 902       9.518  24.805   7.609  1.00 28.32    -0.393 OA
HETATM   43  H4  MK1 B 902       9.104  24.894   8.460  1.00  0.00     0.210 HD
ENDBRANCH  41  42
ENDBRANCH  30  33
ENDBRANCH  28  29
BRANCH  28  44
HETATM   44  C14 MK1 B 902       9.112  23.038   2.102  1.00 28.67     0.052 C 
BRANCH  44  45
HETATM   45  C15 MK1 B 902       7.734  23.500   2.402  1.00 26.89    -0.057 A 
HETATM   46  C16 MK1 B 902       6.980  22.983   3.457  1.00 29.22     0.007 A 
HETATM   47  C17 MK1 B 902       5.682  23.418   3.679  1.00 29.22     0.001 A 
HETATM   48  C18 MK1 B 902       5.141  24.383   2.826  1.00 30.97     0.000 A 
HETATM   49  C19 MK1 B 902       5.896  24.910   1.772  1.00 29.25     0.001 A 
HETATM   50  C20 MK1 B 902       7.201  24.463   1.562  1.00 29.96     0.007 A 
ENDBRANCH  44  45
ENDBRANCH  28  44
ENDBRANCH  27  28
ENDBRANCH  24  27
ENDBRANCH  23  24
ENDBRANCH   4  23
TORSDOF 14
ENDMDL
MODEL 11
REMARK VINA RESULT:      -9.2      2.043      3.539
REMARK  14 active torsions:
REMARK  status: ('A' for Active; 'I' for Inactive)
REMARK    1  A    between atoms: N1_1  and  C31_43 
REMARK    2  A    between atoms: C2_3  and  C3_4 
REMARK       I    between atoms: C3_4  and  N2_6 
REMARK    3  A    between atoms: N2_6  and  C4_8 
REMARK    4  A    between atoms: N3_12  and  C10_15 
REMARK    5  A    between atoms: C10_15  and  C11_16 
REMARK    6  A    between atoms: C11_16  and  O2_17 
REMARK    7  A    between atoms: C11_16  and  C12_19 
REMARK    8  A    between atoms: C12_19  and  C13_20 
REMARK    9  A    between atoms: C13_20  and  C21_28 
REMARK   10  A    between atoms: C13_20  and  C14_21 
REMARK   11  A    between atoms: C14_21  and  C15_22 
REMARK       I    between atoms: C21_28  and  N4_30 
REMARK   12  A    between atoms: N4_30  and  C22_32 
REMARK   13  A    between atoms: C23_33  and  O4_34 
REMARK   14  A    between atoms: C31_43  and  C32_44 
ROOT
HETATM    1  N1  MK1 B 902      12.088  24.044   3.924  1.00 28.25     0.096 N 
HETATM    2  C1  MK1 B 902      11.778  24.722   5.212  1.00 30.30     0.307 C 
HETATM    3  C2  MK1 B 902      12.807  24.817   6.321  1.00 27.27     0.200 C 
HETATM    4  N3  MK1 B 902      13.116  23.366   6.575  1.00 28.91    -0.395 N 
HETATM    5  C8  MK1 B 902      13.243  22.446   5.417  1.00 26.24     0.148 C 
HETATM    6  C9  MK1 B 902      12.360  22.707   4.214  1.00 27.47     0.292 C 
ENDROOT
BRANCH   1   7
HETATM    7  C31 MK1 B 902      11.153  24.254   2.812  1.00 36.25     0.312 C 
BRANCH   7   8
HETATM    8  C32 MK1 B 902       9.639  24.320   3.044  1.00 42.75    -0.015 A 
HETATM    9  C36 MK1 B 902       8.978  25.457   2.630  1.00 44.71     0.011 A 
HETATM   10  C35 MK1 B 902       7.606  25.533   2.855  1.00 49.34     0.018 A 
HETATM   11  C34 MK1 B 902       6.944  24.475   3.486  1.00 50.60     0.087 A 
HETATM   12  N5  MK1 B 902       7.535  23.295   3.935  1.00 51.38    -0.375 N 
HETATM   13  C33 MK1 B 902       8.915  23.296   3.671  1.00 47.41     0.096 A 
HETATM   14  H5  MK1 B 902       7.034  22.534   4.393  1.00  0.00     0.164 HD
ENDBRANCH   7   8
ENDBRANCH   1   7
BRANCH   3  15
HETATM   15  C3  MK1 B 902      12.171  25.500   7.501  1.00 28.85     0.242 C 
HETATM   16  O1  MK1 B 902      12.858  25.876   8.442  1.00 29.59    -0.271 OA
HETATM   17  N2  MK1 B 902      10.862  25.654   7.468  1.00 22.29    -0.351 N 
HETATM   18  H2  MK1 B 902      10.401  25.236   6.659  1.00  0.00     0.163 HD
BRANCH  17  19
HETATM   19  C4  MK1 B 902       9.985  26.311   8.384  1.00 23.47     0.022 C 
HETATM   20  C7  MK1 B 902       9.662  25.505   9.566  1.00 22.75     0.037 C 
HETATM   21  C5  MK1 B 902       8.638  26.497   7.662  1.00 27.66     0.037 C 
HETATM   22  C6  MK1 B 902      10.469  27.532   8.826  1.00 21.71     0.037 C 
ENDBRANCH  17  19
ENDBRANCH   3  15
BRANCH   4  23
HETATM   23  C10 MK1 B 902      14.154  23.061   7.539  1.00 20.86     0.149 C 
BRANCH  23  24
HETATM   24  C11 MK1 B 902      15.380  22.369   6.940  1.00 21.68     0.136 C 
BRANCH  24  25
HETATM   25  O2  MK1 B 902      16.202  23.496   6.998  1.00 15.87    -0.394 OA
HETATM   26  H2  MK1 B 902      16.017  24.033   6.236  1.00  0.00     0.210 HD
ENDBRANCH  24  25
BRANCH  24  27
HETATM   27  C12 MK1 B 902      16.126  21.201   7.611  1.00 21.49     0.047 C 
BRANCH  27  28
HETATM   28  C13 MK1 B 902      17.569  21.376   8.104  1.00 26.89     0.084 C 
BRANCH  28  29
HETATM   29  C21 MK1 B 902      18.503  20.315   7.533  1.00 29.35     0.222 C 
HETATM   30  N4  MK1 B 902      17.905  19.229   7.051  1.00 31.19    -0.350 N 
HETATM   31  H4  MK1 B 902      16.930  19.049   7.293  1.00  0.00     0.163 HD
HETATM   32  O3  MK1 B 902      19.720  20.533   7.434  1.00 32.66    -0.273 OA
BRANCH  30  33
HETATM   33  C22 MK1 B 902      18.606  18.293   6.190  1.00 29.22     0.147 C 
HETATM   34  C30 MK1 B 902      18.951  16.889   6.752  1.00 31.86    -0.027 A 
HETATM   35  C29 MK1 B 902      19.348  16.446   7.974  1.00 27.70     0.010 A 
HETATM   36  C25 MK1 B 902      18.796  15.794   5.658  1.00 31.29    -0.047 A 
HETATM   37  C28 MK1 B 902      19.591  15.101   8.219  1.00 29.01     0.001 A 
HETATM   38  C27 MK1 B 902      19.434  14.121   7.228  1.00 28.00     0.001 A 
HETATM   39  C26 MK1 B 902      19.033  14.468   5.933  1.00 32.00     0.008 A 
HETATM   40  C24 MK1 B 902      18.333  16.617   4.482  1.00 32.05     0.073 C 
HETATM   41  C23 MK1 B 902      17.805  17.956   4.943  1.00 28.82     0.149 C 
BRANCH  41  42
HETATM   42  O4  MK1 B 902      16.416  17.958   5.236  1.00 28.32    -0.393 OA
HETATM   43  H4  MK1 B 902      16.270  18.219   6.138  1.00  0.00     0.210 HD
ENDBRANCH  41  42
ENDBRANCH  30  33
ENDBRANCH  28  29
BRANCH  28  44
HETATM   44  C14 MK1 B 902      17.668  21.351   9.639  1.00 28.67     0.052 C 
BRANCH  44  45
HETATM   45  C15 MK1 B 902      17.699  19.970  10.184  1.00 26.89    -0.057 A 
HETATM   46  C16 MK1 B 902      16.564  19.158  10.242  1.00 29.22     0.007 A 
HETATM   47  C17 MK1 B 902      16.631  17.887  10.792  1.00 29.22     0.001 A 
HETATM   48  C18 MK1 B 902      17.855  17.434  11.290  1.00 30.97     0.000 A 
HETATM   49  C19 MK1 B 902      18.997  18.241  11.227  1.00 29.25     0.001 A 
HETATM   50  C20 MK1 B 902      18.914  19.517  10.669  1.00 29.96     0.007 A 
ENDBRANCH  44  45
ENDBRANCH  28  44
ENDBRANCH  27  28
ENDBRANCH  24  27
ENDBRANCH  23  24
ENDBRANCH   4  23
TORSDOF 14
ENDMDL
MODEL 12
REMARK VINA RESULT:      -9.1      4.340      8.227
REMARK  14 active torsions:
REMARK  status: ('A' for Active; 'I' for Inactive)
REMARK    1  A    between atoms: N1_1  and  C31_43 
REMARK    2  A    between atoms: C2_3  and  C3_4 
REMARK       I    between atoms: C3_4  and  N2_6 
REMARK    3  A    between atoms: N2_6  and  C4_8 
REMARK    4  A    between atoms: N3_12  and  C10_15 
REMARK    5  A    between atoms: C10_15  and  C11_16 
REMARK    6  A    between atoms: C11_16  and  O2_17 
REMARK    7  A    between atoms: C11_16  and  C12_19 
REMARK    8  A    between atoms: C12_19  and  C13_20 
REMARK    9  A    between atoms: C13_20  and  C21_28 
REMARK   10  A    between atoms: C13_20  and  C14_21 
REMARK   11  A    between atoms: C14_21  and  C15_22 
REMARK       I    between atoms: C21_28  and  N4_30 
REMARK   12  A    between atoms: N4_30  and  C22_32 
REMARK   13  A    between atoms: C23_33  and  O4_34 
REMARK   14  A    between atoms: C31_43  and  C32_44 
ROOT
HETATM    1  N1  MK1 B 902      15.121  22.713   8.002  1.00 28.25     0.096 N 
HETATM    2  C1  MK1 B 902      15.563  21.749   6.959  1.00 30.30     0.307 C 
HETATM    3  C2  MK1 B 902      16.407  20.539   7.310  1.00 27.27     0.200 C 
HETATM    4  N3  MK1 B 902      17.609  21.181   7.948  1.00 28.91    -0.395 N 
HETATM    5  C8  MK1 B 902      17.407  22.331   8.865  1.00 26.24     0.148 C 
HETATM    6  C9  MK1 B 902      16.267  23.281   8.556  1.00 27.47     0.292 C 
ENDROOT
BRANCH   1   7
HETATM    7  C31 MK1 B 902      14.077  23.675   7.628  1.00 36.25     0.312 C 
BRANCH   7   8
HETATM    8  C32 MK1 B 902      13.247  23.497   6.352  1.00 42.75    -0.015 A 
HETATM    9  C36 MK1 B 902      12.216  22.584   6.382  1.00 44.71     0.011 A 
HETATM   10  C35 MK1 B 902      11.470  22.403   5.219  1.00 49.34     0.018 A 
HETATM   11  C34 MK1 B 902      11.782  23.137   4.070  1.00 50.60     0.087 A 
HETATM   12  N5  MK1 B 902      12.805  24.077   3.956  1.00 51.38    -0.375 N 
HETATM   13  C33 MK1 B 902      13.506  24.201   5.166  1.00 47.41     0.096 A 
HETATM   14  H5  MK1 B 902      13.016  24.603   3.108  1.00  0.00     0.164 HD
ENDBRANCH   7   8
ENDBRANCH   1   7
BRANCH   3  15
HETATM   15  C3  MK1 B 902      16.735  19.805   6.039  1.00 28.85     0.242 C 
HETATM   16  O1  MK1 B 902      17.794  20.012   5.461  1.00 29.59    -0.271 OA
HETATM   17  N2  MK1 B 902      15.832  18.957   5.587  1.00 22.29    -0.351 N 
HETATM   18  H2  MK1 B 902      14.965  18.927   6.125  1.00  0.00     0.163 HD
BRANCH  17  19
HETATM   19  C4  MK1 B 902      15.872  18.073   4.467  1.00 23.47     0.022 C 
HETATM   20  C7  MK1 B 902      17.161  17.392   4.304  1.00 22.75     0.037 C 
HETATM   21  C5  MK1 B 902      15.732  18.942   3.204  1.00 27.66     0.037 C 
HETATM   22  C6  MK1 B 902      14.883  17.102   4.497  1.00 21.71     0.037 C 
ENDBRANCH  17  19
ENDBRANCH   3  15
BRANCH   4  23
HETATM   23  C10 MK1 B 902      18.620  20.304   8.505  1.00 20.86     0.149 C 
BRANCH  23  24
HETATM   24  C11 MK1 B 902      18.057  19.124   9.299  1.00 21.68     0.136 C 
BRANCH  24  25
HETATM   25  O2  MK1 B 902      18.688  18.143   8.532  1.00 15.87    -0.394 OA
HETATM   26  H2  MK1 B 902      18.026  17.712   8.004  1.00  0.00     0.210 HD
ENDBRANCH  24  25
BRANCH  24  27
HETATM   27  C12 MK1 B 902      18.376  18.848  10.780  1.00 21.49     0.047 C 
BRANCH  27  28
HETATM   28  C13 MK1 B 902      18.317  17.420  11.339  1.00 26.89     0.084 C 
BRANCH  28  29
HETATM   29  C21 MK1 B 902      19.400  16.527  10.745  1.00 29.35     0.222 C 
HETATM   30  N4  MK1 B 902      18.973  15.373  10.238  1.00 31.19    -0.350 N 
HETATM   31  H4  MK1 B 902      18.038  15.041  10.474  1.00  0.00     0.163 HD
HETATM   32  O3  MK1 B 902      20.569  16.929  10.654  1.00 32.66    -0.273 OA
BRANCH  30  33
HETATM   33  C22 MK1 B 902      19.807  14.574   9.357  1.00 29.22     0.147 C 
HETATM   34  C30 MK1 B 902      19.646  13.032   9.386  1.00 31.86    -0.027 A 
HETATM   35  C29 MK1 B 902      19.410  12.138  10.382  1.00 27.70     0.010 A 
HETATM   36  C25 MK1 B 902      19.788  12.427   7.960  1.00 31.29    -0.047 A 
HETATM   37  C28 MK1 B 902      19.301  10.777  10.130  1.00 29.01     0.001 A 
HETATM   38  C27 MK1 B 902      19.418  10.245   8.838  1.00 28.00     0.001 A 
HETATM   39  C26 MK1 B 902      19.665  11.076   7.739  1.00 32.00     0.008 A 
HETATM   40  C24 MK1 B 902      20.008  13.671   7.134  1.00 32.05     0.073 C 
HETATM   41  C23 MK1 B 902      19.564  14.900   7.893  1.00 28.82     0.149 C 
BRANCH  41  42
HETATM   42  O4  MK1 B 902      18.202  15.244   7.685  1.00 28.32    -0.393 OA
HETATM   43  H4  MK1 B 902      17.852  15.680   8.454  1.00  0.00     0.210 HD
ENDBRANCH  41  42
ENDBRANCH  30  33
ENDBRANCH  28  29
BRANCH  28  44
HETATM   44  C14 MK1 B 902      16.946  16.760  11.108  1.00 28.67     0.052 C 
BRANCH  44  45
HETATM   45  C15 MK1 B 902      16.400  16.139  12.341  1.00 26.89    -0.057 A 
HETATM   46  C16 MK1 B 902      17.215  15.683  13.379  1.00 29.22     0.007 A 
HETATM   47  C17 MK1 B 902      16.663  15.077  14.497  1.00 29.22     0.001 A 
HETATM   48  C18 MK1 B 902      15.276  14.928  14.566  1.00 30.97     0.000 A 
HETATM   49  C19 MK1 B 902      14.454  15.391  13.531  1.00 29.25     0.001 A 
HETATM   50  C20 MK1 B 902      15.024  16.000  12.413  1.00 29.96     0.007 A 
ENDBRANCH  44  45
ENDBRANCH  28  44
ENDBRANCH  27  28
ENDBRANCH  24  27
ENDBRANCH  23  24
ENDBRANCH   4  23
TORSDOF 14
ENDMDL
MODEL 13
REMARK VINA RESULT:      -9.0      2.745      5.131
REMARK  14 active torsions:
REMARK  status: ('A' for Active; 'I' for Inactive)
REMARK    1  A    between atoms: N1_1  and  C31_43 
REMARK    2  A    between atoms: C2_3  and  C3_4 
REMARK       I    between atoms: C3_4  and  N2_6 
REMARK    3  A    between atoms: N2_6  and  C4_8 
REMARK    4  A    between atoms: N3_12  and  C10_15 
REMARK    5  A    between atoms: C10_15  and  C11_16 
REMARK    6  A    between atoms: C11_16  and  O2_17 
REMARK    7  A    between atoms: C11_16  and  C12_19 
REMARK    8  A    between atoms: C12_19  and  C13_20 
REMARK    9  A    between atoms: C13_20  and  C21_28 
REMARK   10  A    between atoms: C13_20  and  C14_21 
REMARK   11  A    between atoms: C14_21  and  C15_22 
REMARK       I    between atoms: C21_28  and  N4_30 
REMARK   12  A    between atoms: N4_30  and  C22_32 
REMARK   13  A    between atoms: C23_33  and  O4_34 
REMARK   14  A    between atoms: C31_43  and  C32_44 
ROOT
HETATM    1  N1  MK1 B 902       4.867  23.236   3.917  1.00 28.25     0.096 N 
HETATM    2  C1  MK1 B 902       5.123  24.538   4.589  1.00 30.30     0.307 C 
HETATM    3  C2  MK1 B 902       5.850  25.663   3.879  1.00 27.27     0.200 C 
HETATM    4  N3  MK1 B 902       7.159  25.007   3.531  1.00 28.91    -0.395 N 
HETATM    5  C8  MK1 B 902       7.153  23.603   3.048  1.00 26.24     0.148 C 
HETATM    6  C9  MK1 B 902       6.106  22.670   3.622  1.00 27.47     0.292 C 
ENDROOT
BRANCH   1   7
HETATM    7  C31 MK1 B 902       3.912  22.325   4.560  1.00 36.25     0.312 C 
BRANCH   7   8
HETATM    8  C32 MK1 B 902       3.369  21.092   3.828  1.00 42.75    -0.015 A 
HETATM    9  C36 MK1 B 902       3.644  19.854   4.370  1.00 44.71     0.011 A 
HETATM   10  C35 MK1 B 902       3.170  18.729   3.699  1.00 49.34     0.018 A 
HETATM   11  C34 MK1 B 902       2.444  18.879   2.513  1.00 50.60     0.087 A 
HETATM   12  N5  MK1 B 902       2.124  20.089   1.900  1.00 51.38    -0.375 N 
HETATM   13  C33 MK1 B 902       2.635  21.171   2.636  1.00 47.41     0.096 A 
HETATM   14  H5  MK1 B 902       1.592  20.177   1.034  1.00  0.00     0.164 HD
ENDBRANCH   7   8
ENDBRANCH   1   7
BRANCH   3  15
HETATM   15  C3  MK1 B 902       6.003  26.810   4.840  1.00 28.85     0.242 C 
HETATM   16  O1  MK1 B 902       5.585  27.923   4.545  1.00 29.59    -0.271 OA
HETATM   17  N2  MK1 B 902       6.610  26.557   5.983  1.00 22.29    -0.351 N 
HETATM   18  H2  MK1 B 902       6.970  25.607   6.075  1.00  0.00     0.163 HD
BRANCH  17  19
HETATM   19  C4  MK1 B 902       6.844  27.400   7.111  1.00 23.47     0.022 C 
HETATM   20  C7  MK1 B 902       7.909  28.385   6.896  1.00 22.75     0.037 C 
HETATM   21  C5  MK1 B 902       7.374  26.499   8.242  1.00 27.66     0.037 C 
HETATM   22  C6  MK1 B 902       5.715  28.084   7.530  1.00 21.71     0.037 C 
ENDBRANCH  17  19
ENDBRANCH   3  15
BRANCH   4  23
HETATM   23  C10 MK1 B 902       8.105  25.774   2.744  1.00 20.86     0.149 C 
BRANCH  23  24
HETATM   24  C11 MK1 B 902       9.521  25.803   3.322  1.00 21.68     0.136 C 
BRANCH  24  25
HETATM   25  O2  MK1 B 902       9.239  26.762   4.296  1.00 15.87    -0.394 OA
HETATM   26  H2  MK1 B 902       9.797  27.515   4.137  1.00  0.00     0.210 HD
ENDBRANCH  24  25
BRANCH  24  27
HETATM   27  C12 MK1 B 902      10.197  24.606   4.014  1.00 21.49     0.047 C 
BRANCH  27  28
HETATM   28  C13 MK1 B 902      11.704  24.358   3.852  1.00 26.89     0.084 C 
BRANCH  28  29
HETATM   29  C21 MK1 B 902      12.107  22.960   4.304  1.00 29.35     0.222 C 
HETATM   30  N4  MK1 B 902      13.346  22.594   3.987  1.00 31.19    -0.350 N 
HETATM   31  H4  MK1 B 902      13.859  23.126   3.285  1.00  0.00     0.163 HD
HETATM   32  O3  MK1 B 902      11.349  22.284   5.016  1.00 32.66    -0.273 OA
BRANCH  30  33
HETATM   33  C22 MK1 B 902      13.986  21.452   4.617  1.00 29.22     0.147 C 
HETATM   34  C30 MK1 B 902      14.808  20.482   3.727  1.00 31.86    -0.027 A 
HETATM   35  C29 MK1 B 902      14.639  20.007   2.465  1.00 27.70     0.010 A 
HETATM   36  C25 MK1 B 902      16.076  19.977   4.472  1.00 31.29    -0.047 A 
HETATM   37  C28 MK1 B 902      15.549  19.131   1.888  1.00 29.01     0.001 A 
HETATM   38  C27 MK1 B 902      16.697  18.694   2.565  1.00 28.00     0.001 A 
HETATM   39  C26 MK1 B 902      16.966  19.118   3.871  1.00 32.00     0.008 A 
HETATM   40  C24 MK1 B 902      15.955  20.707   5.787  1.00 32.05     0.073 C 
HETATM   41  C23 MK1 B 902      15.004  21.875   5.663  1.00 28.82     0.149 C 
BRANCH  41  42
HETATM   42  O4  MK1 B 902      15.631  23.089   5.276  1.00 28.32    -0.393 OA
HETATM   43  H4  MK1 B 902      16.038  23.504   6.028  1.00  0.00     0.210 HD
ENDBRANCH  41  42
ENDBRANCH  30  33
ENDBRANCH  28  29
BRANCH  28  44
HETATM   44  C14 MK1 B 902      12.550  25.392   4.616  1.00 28.67     0.052 C 
BRANCH  44  45
HETATM   45  C15 MK1 B 902      12.266  25.392   6.073  1.00 26.89    -0.057 A 
HETATM   46  C16 MK1 B 902      11.095  25.928   6.612  1.00 29.22     0.007 A 
HETATM   47  C17 MK1 B 902      10.888  25.940   7.983  1.00 29.22     0.001 A 
HETATM   48  C18 MK1 B 902      11.874  25.407   8.816  1.00 30.97     0.000 A 
HETATM   49  C19 MK1 B 902      13.047  24.860   8.280  1.00 29.25     0.001 A 
HETATM   50  C20 MK1 B 902      13.240  24.856   6.899  1.00 29.96     0.007 A 
ENDBRANCH  44  45
ENDBRANCH  28  44
ENDBRANCH  27  28
ENDBRANCH  24  27
ENDBRANCH  23  24
ENDBRANCH   4  23
TORSDOF 14
ENDMDL
MODEL 14
REMARK VINA RESULT:      -8.9      2.206     10.778
REMARK  14 active torsions:
REMARK  status: ('A' for Active; 'I' for Inactive)
REMARK    1  A    between atoms: N1_1  and  C31_43 
REMARK    2  A    between atoms: C2_3  and  C3_4 
REMARK       I    between atoms: C3_4  and  N2_6 
REMARK    3  A    between atoms: N2_6  and  C4_8 
REMARK    4  A    between atoms: N3_12  and  C10_15 
REMARK    5  A    between atoms: C10_15  and  C11_16 
REMARK    6  A    between atoms: C11_16  and  O2_17 
REMARK    7  A    between atoms: C11_16  and  C12_19 
REMARK    8  A    between atoms: C12_19  and  C13_20 
REMARK    9  A    between atoms: C13_20  and  C21_28 
REMARK   10  A    between atoms: C13_20  and  C14_21 
REMARK   11  A    between atoms: C14_21  and  C15_22 
REMARK       I    between atoms: C21_28  and  N4_30 
REMARK   12  A    between atoms: N4_30  and  C22_32 
REMARK   13  A    between atoms: C23_33  and  O4_34 
REMARK   14  A    between atoms: C31_43  and  C32_44 
ROOT
HETATM    1  N1  MK1 B 902      17.872  20.009   9.669  1.00 28.25     0.096 N 
HETATM    2  C1  MK1 B 902      17.957  19.540   8.260  1.00 30.30     0.307 C 
HETATM    3  C2  MK1 B 902      17.607  20.453   7.102  1.00 27.27     0.200 C 
HETATM    4  N3  MK1 B 902      16.186  20.826   7.426  1.00 28.91    -0.395 N 
HETATM    5  C8  MK1 B 902      15.824  21.117   8.836  1.00 26.24     0.148 C 
HETATM    6  C9  MK1 B 902      16.540  20.335   9.919  1.00 27.47     0.292 C 
ENDROOT
BRANCH   1   7
HETATM    7  C31 MK1 B 902      18.502  19.170  10.695  1.00 36.25     0.312 C 
BRANCH   7   8
HETATM    8  C32 MK1 B 902      18.238  17.662  10.767  1.00 42.75    -0.015 A 
HETATM    9  C36 MK1 B 902      19.276  16.814  10.447  1.00 44.71     0.011 A 
HETATM   10  C35 MK1 B 902      19.036  15.443  10.492  1.00 49.34     0.018 A 
HETATM   11  C34 MK1 B 902      17.771  14.968  10.850  1.00 50.60     0.087 A 
HETATM   12  N5  MK1 B 902      16.670  15.754  11.187  1.00 51.38    -0.375 N 
HETATM   13  C33 MK1 B 902      16.993  17.119  11.119  1.00 47.41     0.096 A 
HETATM   14  H5  MK1 B 902      15.754  15.388  11.446  1.00  0.00     0.164 HD
ENDBRANCH   7   8
ENDBRANCH   1   7
BRANCH   3  15
HETATM   15  C3  MK1 B 902      17.734  19.669   5.824  1.00 28.85     0.242 C 
HETATM   16  O1  MK1 B 902      18.738  19.776   5.130  1.00 29.59    -0.271 OA
HETATM   17  N2  MK1 B 902      16.721  18.891   5.496  1.00 22.29    -0.351 N 
HETATM   18  H2  MK1 B 902      15.919  18.945   6.124  1.00  0.00     0.163 HD
BRANCH  17  19
HETATM   19  C4  MK1 B 902      16.567  17.985   4.403  1.00 23.47     0.022 C 
HETATM   20  C7  MK1 B 902      16.517  18.648   3.096  1.00 22.75     0.037 C 
HETATM   21  C5  MK1 B 902      15.184  17.328   4.556  1.00 27.66     0.037 C 
HETATM   22  C6  MK1 B 902      17.558  17.018   4.348  1.00 21.71     0.037 C 
ENDBRANCH  17  19
ENDBRANCH   3  15
BRANCH   4  23
HETATM   23  C10 MK1 B 902      15.531  21.787   6.561  1.00 20.86     0.149 C 
BRANCH  23  24
HETATM   24  C11 MK1 B 902      14.550  21.167   5.566  1.00 21.68     0.136 C 
BRANCH  24  25
HETATM   25  O2  MK1 B 902      13.416  21.395   6.348  1.00 15.87    -0.394 OA
HETATM   26  H2  MK1 B 902      12.651  21.174   5.828  1.00  0.00     0.210 HD
ENDBRANCH  24  25
BRANCH  24  27
HETATM   27  C12 MK1 B 902      14.277  21.726   4.157  1.00 21.49     0.047 C 
BRANCH  27  28
HETATM   28  C13 MK1 B 902      13.137  22.727   3.921  1.00 26.89     0.084 C 
BRANCH  28  29
HETATM   29  C21 MK1 B 902      13.320  24.006   4.730  1.00 29.35     0.222 C 
HETATM   30  N4  MK1 B 902      12.275  24.366   5.470  1.00 31.19    -0.350 N 
HETATM   31  H4  MK1 B 902      11.365  23.941   5.288  1.00  0.00     0.163 HD
HETATM   32  O3  MK1 B 902      14.418  24.580   4.763  1.00 32.66    -0.273 OA
BRANCH  30  33
HETATM   33  C22 MK1 B 902      12.397  25.351   6.531  1.00 29.22     0.147 C 
HETATM   34  C30 MK1 B 902      11.108  26.036   7.054  1.00 31.86    -0.027 A 
HETATM   35  C29 MK1 B 902       9.969  26.465   6.449  1.00 27.70     0.010 A 
HETATM   36  C25 MK1 B 902      11.176  26.258   8.592  1.00 31.29    -0.047 A 
HETATM   37  C28 MK1 B 902       8.939  27.055   7.168  1.00 29.01     0.001 A 
HETATM   38  C27 MK1 B 902       9.006  27.237   8.557  1.00 28.00     0.001 A 
HETATM   39  C26 MK1 B 902      10.135  26.836   9.280  1.00 32.00     0.008 A 
HETATM   40  C24 MK1 B 902      12.521  25.658   8.917  1.00 32.05     0.073 C 
HETATM   41  C23 MK1 B 902      12.985  24.752   7.799  1.00 28.82     0.149 C 
BRANCH  41  42
HETATM   42  O4  MK1 B 902      12.571  23.401   7.942  1.00 28.32    -0.393 OA
HETATM   43  H4  MK1 B 902      12.480  23.181   8.862  1.00  0.00     0.210 HD
ENDBRANCH  41  42
ENDBRANCH  30  33
ENDBRANCH  28  29
BRANCH  28  44
HETATM   44  C14 MK1 B 902      11.758  22.126   4.245  1.00 28.67     0.052 C 
BRANCH  44  45
HETATM   45  C15 MK1 B 902      10.653  22.836   3.553  1.00 26.89    -0.057 A 
HETATM   46  C16 MK1 B 902       9.307  22.576   3.820  1.00 29.22     0.007 A 
HETATM   47  C17 MK1 B 902       8.307  23.237   3.123  1.00 29.22     0.001 A 
HETATM   48  C18 MK1 B 902       8.671  24.167   2.146  1.00 30.97     0.000 A 
HETATM   49  C19 MK1 B 902      10.018  24.437   1.880  1.00 29.25     0.001 A 
HETATM   50  C20 MK1 B 902      11.013  23.764   2.590  1.00 29.96     0.007 A 
ENDBRANCH  44  45
ENDBRANCH  28  44
ENDBRANCH  27  28
ENDBRANCH  24  27
ENDBRANCH  23  24
ENDBRANCH   4  23
TORSDOF 14
ENDMDL
MODEL 15
REMARK VINA RESULT:      -8.9      2.004     10.084
REMARK  14 active torsions:
REMARK  status: ('A' for Active; 'I' for Inactive)
REMARK    1  A    between atoms: N1_1  and  C31_43 
REMARK    2  A    between atoms: C2_3  and  C3_4 
REMARK       I    between atoms: C3_4  and  N2_6 
REMARK    3  A    between atoms: N2_6  and  C4_8 
REMARK    4  A    between atoms: N3_12  and  C10_15 
REMARK    5  A    between atoms: C10_15  and  C11_16 
REMARK    6  A    between atoms: C11_16  and  O2_17 
REMARK    7  A    between atoms: C11_16  and  C12_19 
REMARK    8  A    between atoms: C12_19  and  C13_20 
REMARK    9  A    between atoms: C13_20  and  C21_28 
REMARK   10  A    between atoms: C13_20  and  C14_21 
REMARK   11  A    between atoms: C14_21  and  C15_22 
REMARK       I    between atoms: C21_28  and  N4_30 
REMARK   12  A    between atoms: N4_30  and  C22_32 
REMARK   13  A    between atoms: C23_33  and  O4_34 
REMARK   14  A    between atoms: C31_43  and  C32_44 
ROOT
HETATM    1  N1  MK1 B 902      14.498  20.317   3.933  1.00 28.25     0.096 N 
HETATM    2  C1  MK1 B 902      15.088  20.605   5.268  1.00 30.30     0.307 C 
HETATM    3  C2  MK1 B 902      14.261  21.220   6.379  1.00 27.27     0.200 C 
HETATM    4  N3  MK1 B 902      13.801  22.504   5.743  1.00 28.91    -0.395 N 
HETATM    5  C8  MK1 B 902      13.376  22.487   4.320  1.00 26.24     0.148 C 
HETATM    6  C9  MK1 B 902      14.094  21.534   3.386  1.00 27.47     0.292 C 
ENDROOT
BRANCH   1   7
HETATM    7  C31 MK1 B 902      15.273  19.463   3.025  1.00 36.25     0.312 C 
BRANCH   7   8
HETATM    8  C32 MK1 B 902      16.380  18.540   3.548  1.00 42.75    -0.015 A 
HETATM    9  C36 MK1 B 902      17.609  18.599   2.925  1.00 44.71     0.011 A 
HETATM   10  C35 MK1 B 902      18.613  17.749   3.382  1.00 49.34     0.018 A 
HETATM   11  C34 MK1 B 902      18.356  16.872   4.440  1.00 50.60     0.087 A 
HETATM   12  N5  MK1 B 902      17.146  16.750   5.123  1.00 51.38    -0.375 N 
HETATM   13  C33 MK1 B 902      16.189  17.638   4.604  1.00 47.41     0.096 A 
HETATM   14  H5  MK1 B 902      16.979  16.104   5.894  1.00  0.00     0.164 HD
ENDBRANCH   7   8
ENDBRANCH   1   7
BRANCH   3  15
HETATM   15  C3  MK1 B 902      15.155  21.440   7.569  1.00 28.85     0.242 C 
HETATM   16  O1  MK1 B 902      14.758  22.085   8.531  1.00 29.59    -0.271 OA
HETATM   17  N2  MK1 B 902      16.367  20.922   7.511  1.00 22.29    -0.351 N 
HETATM   18  H2  MK1 B 902      16.596  20.467   6.627  1.00  0.00     0.163 HD
BRANCH  17  19
HETATM   19  C4  MK1 B 902      17.409  20.896   8.486  1.00 23.47     0.022 C 
HETATM   20  C7  MK1 B 902      17.881  22.229   8.875  1.00 22.75     0.037 C 
HETATM   21  C5  MK1 B 902      18.629  20.232   7.823  1.00 27.66     0.037 C 
HETATM   22  C6  MK1 B 902      17.061  20.219   9.644  1.00 21.71     0.037 C 
ENDBRANCH  17  19
ENDBRANCH   3  15
BRANCH   4  23
HETATM   23  C10 MK1 B 902      12.889  23.338   6.499  1.00 20.86     0.149 C 
BRANCH  23  24
HETATM   24  C11 MK1 B 902      12.861  24.800   6.053  1.00 21.68     0.136 C 
BRANCH  24  25
HETATM   25  O2  MK1 B 902      14.119  24.771   5.447  1.00 15.87    -0.394 OA
HETATM   26  H2  MK1 B 902      14.296  25.636   5.096  1.00  0.00     0.210 HD
ENDBRANCH  24  25
BRANCH  24  27
HETATM   27  C12 MK1 B 902      11.857  25.375   5.037  1.00 21.49     0.047 C 
BRANCH  27  28
HETATM   28  C13 MK1 B 902      10.348  25.171   5.228  1.00 26.89     0.084 C 
BRANCH  28  29
HETATM   29  C21 MK1 B 902       9.703  24.498   4.023  1.00 29.35     0.222 C 
HETATM   30  N4  MK1 B 902       8.379  24.377   4.078  1.00 31.19    -0.350 N 
HETATM   31  H4  MK1 B 902       7.905  24.502   4.972  1.00  0.00     0.163 HD
HETATM   32  O3  MK1 B 902      10.381  24.203   3.027  1.00 32.66    -0.273 OA
BRANCH  30  33
HETATM   33  C22 MK1 B 902       7.593  24.069   2.896  1.00 29.22     0.147 C 
HETATM   34  C30 MK1 B 902       6.133  23.579   3.087  1.00 31.86    -0.027 A 
HETATM   35  C29 MK1 B 902       5.534  22.772   4.001  1.00 27.70     0.010 A 
HETATM   36  C25 MK1 B 902       5.200  24.157   1.986  1.00 31.29    -0.047 A 
HETATM   37  C28 MK1 B 902       4.175  22.492   3.947  1.00 29.01     0.001 A 
HETATM   38  C27 MK1 B 902       3.341  23.030   2.956  1.00 28.00     0.001 A 
HETATM   39  C26 MK1 B 902       3.855  23.872   1.963  1.00 32.00     0.008 A 
HETATM   40  C24 MK1 B 902       6.168  24.999   1.192  1.00 32.05     0.073 C 
HETATM   41  C23 MK1 B 902       7.414  25.282   1.999  1.00 28.82     0.149 C 
BRANCH  41  42
HETATM   42  O4  MK1 B 902       7.337  26.465   2.782  1.00 28.32    -0.393 OA
HETATM   43  H4  MK1 B 902       6.450  26.805   2.778  1.00  0.00     0.210 HD
ENDBRANCH  41  42
ENDBRANCH  30  33
ENDBRANCH  28  29
BRANCH  28  44
HETATM   44  C14 MK1 B 902       9.613  26.492   5.514  1.00 28.67     0.052 C 
BRANCH  44  45
HETATM   45  C15 MK1 B 902       9.395  26.719   6.965  1.00 26.89    -0.057 A 
HETATM   46  C16 MK1 B 902       9.502  25.697   7.910  1.00 29.22     0.007 A 
HETATM   47  C17 MK1 B 902       9.254  25.947   9.252  1.00 29.22     0.001 A 
HETATM   48  C18 MK1 B 902       8.893  27.239   9.640  1.00 30.97     0.000 A 
HETATM   49  C19 MK1 B 902       8.792  28.268   8.696  1.00 29.25     0.001 A 
HETATM   50  C20 MK1 B 902       9.045  28.001   7.351  1.00 29.96     0.007 A 
ENDBRANCH  44  45
ENDBRANCH  28  44
ENDBRANCH  27  28
ENDBRANCH  24  27
ENDBRANCH  23  24
ENDBRANCH   4  23
TORSDOF 14
ENDMDL
